$DATA1 SOURCE='HSPICE' VERSION='F-2011.09-SP2 64-BIT'
.TITLE '$this uut was automatically generated by:'
 inv_avg_power00  peakpower00      inv_avg_power10  peakpower10       
 inv_avg_power01  peakpower01      inv_avg_power11  peakpower11       
 source_power     trf_delay_001    tfr_delay_001    trf_delay_002     
 tfr_delay_002    trf_delay_101    tfr_delay_101    trf_delay_102     
 tfr_delay_102    trf_delay_011    tfr_delay_011    trf_delay_111     
 tfr_delay_111    temper           alter#            
  7.152e-06        1.064e-03        2.842e-07        3.113e-05        
  4.546e-06        9.738e-04        1.956e-07        2.807e-05        
  1.599e-05        3.173e-12        1.042e-09        1.992e-09        
  2.003e-09        1.659e-12        8.364e-13       -5.363e-13        
  9.984e-13        3.173e-12        2.043e-09        2.688e-13        
  8.364e-13         25.0000        1                 
