***** HSPICE -- F-2011.09-SP2 64-BIT (Feb 27 2012) linux ******
 Input File: ptm10hp.sp
 lic:
 lic: FLEXlm: v10.8
 lic: USER:   iliabautista         HOSTNAME: itn3.rc.usf.edu
 lic: HOSTID:                      PID:      20891
 lic: Using FLEXlm license file:
 lic: 27000@license0.rc.usf.edu
 lic: Checkout 1 hspice
 lic: License/Maintenance for hspice will expire on 18-jul-2021/2019.06
 lic: 1(in_use)/50(total) FLOATING license(s) on SERVER license0.rc.usf.edu
 lic:
 init: begin read circuit files,  cpu clock=  3.00E-02
       option post     =     2.00
 init: end read circuit files,  cpu clock=  3.00E-02 memory=       153 kb
 init: begin check errors,  cpu clock=  3.00E-02
 init: end check errors,  cpu clock=  3.00E-02 memory=       153 kb
 init: begin setup matrix, pivot=     0 cpu clock=  3.00E-02
       establish matrix -- done,  cpu clock=  3.00E-02 memory=       157 kb
       re-order matrix -- done,  cpu clock=  3.00E-02 memory=       156 kb
 init: end setup matrix,  cpu clock=  3.00E-02 memory=       171 kb
 dcop: begin dcop,  cpu clock=  3.00E-02
 dcop: end dcop,  cpu clock=  3.00E-02 memory=       171 kb  tot_iter=       5
 output: ptm10hp.tr0
 sweep: tran tran0    begin, stop_t=  4.00E-09 #sweeps= 401 cpu clock=  3.00E-02
 tran: time= 5.8963E-10 tot_iter=      65 conv_iter=      23 cpu clock= 4.00E-02
 tran: time= 9.8963E-10 tot_iter=      69 conv_iter=      25 cpu clock= 4.00E-02
 tran: time= 1.2156E-09 tot_iter=     143 conv_iter=      48 cpu clock= 4.00E-02
 tran: time= 1.7992E-09 tot_iter=     155 conv_iter=      53 cpu clock= 4.00E-02
 tran: time= 2.1992E-09 tot_iter=     159 conv_iter=      55 cpu clock= 4.00E-02
 tran: time= 2.5992E-09 tot_iter=     163 conv_iter=      57 cpu clock= 4.00E-02
 tran: time= 2.9992E-09 tot_iter=     167 conv_iter=      59 cpu clock= 4.00E-02
 tran: time= 3.3992E-09 tot_iter=     171 conv_iter=      61 cpu clock= 4.00E-02
 tran: time= 3.7992E-09 tot_iter=     175 conv_iter=      63 cpu clock= 4.00E-02
 tran: time= 4.0000E-09 tot_iter=     177 conv_iter=      64 cpu clock= 4.00E-02
 sweep: tran tran0    end,  cpu clock=  4.00E-02 memory=       171 kb
>info:         ***** hspice job concluded
 lic: Release hspice token(s)
