***** HSPICE -- F-2011.09-SP2 64-BIT (Feb 27 2012) linux ******
 Input File: ptm16hp.sp
 lic:
 lic: FLEXlm: v10.8
 lic: USER:   iliabautista         HOSTNAME: itn1.rc.usf.edu
 lic: HOSTID:                      PID:      106140
 lic: Using FLEXlm license file:
 lic: 27000@license0.rc.usf.edu
 lic: Checkout 1 hspice
 lic: License/Maintenance for hspice will expire on 18-jul-2021/2019.06
 lic: 1(in_use)/50(total) FLOATING license(s) on SERVER license0.rc.usf.edu
 lic:
 init: begin read circuit files,  cpu clock=  2.00E-02
       option post     =     2.00
 init: end read circuit files,  cpu clock=  2.00E-02 memory=       156 kb
 init: begin check errors,  cpu clock=  2.00E-02
 init: end check errors,  cpu clock=  4.00E-02 memory=       157 kb
 init: begin setup matrix, pivot=     0 cpu clock=  4.00E-02
       establish matrix -- done,  cpu clock=  4.00E-02 memory=       178 kb
       re-order matrix -- done,  cpu clock=  4.00E-02 memory=       174 kb
 init: end setup matrix,  cpu clock=  4.00E-02 memory=       217 kb
 dcop: begin dcop,  cpu clock=  4.00E-02
 dcop: end dcop,  cpu clock=  4.00E-02 memory=       217 kb  tot_iter=       5
 output: ptm16hp.mt0
 sweep: tran tran0    begin, stop_t=  8.00E-09 #sweeps= 801 cpu clock=  4.00E-02
 tran: time= 1.0500E-09 tot_iter=     136 conv_iter=      24 cpu clock= 6.00E-02
 tran: time= 1.7636E-09 tot_iter=     271 conv_iter=      46 cpu clock= 7.00E-02
 tran: time= 2.4295E-09 tot_iter=     375 conv_iter=      70 cpu clock= 8.00E-02
 tran: time= 3.2190E-09 tot_iter=     464 conv_iter=      92 cpu clock= 9.00E-02
 tran: time= 4.0000E-09 tot_iter=     470 conv_iter=      95 cpu clock= 9.00E-02
 tran: time= 5.0500E-09 tot_iter=     570 conv_iter=     120 cpu clock= 1.00E-01
 tran: time= 5.6152E-09 tot_iter=     661 conv_iter=     142 cpu clock= 1.10E-01
 tran: time= 6.4111E-09 tot_iter=     764 conv_iter=     165 cpu clock= 1.20E-01
 tran: time= 7.2196E-09 tot_iter=     855 conv_iter=     187 cpu clock= 1.30E-01
 tran: time= 8.0000E-09 tot_iter=     861 conv_iter=     190 cpu clock= 1.30E-01
 sweep: tran tran0    end,  cpu clock=  1.30E-01 memory=       217 kb
>info:         ***** hspice job concluded
 lic: Release hspice token(s)
