 ****** HSPICE -- F-2011.09-SP2 64-BIT (Feb 27 2012) linux ******               
  Copyright (C) 2011 Synopsys, Inc. All Rights Reserved.                        
  Unpublished-rights reserved under US copyright laws.
  This program is protected by law and is subject to the
  terms and conditions of the license agreement from Synopsys.
  Use of this program is your acceptance to be bound by the
  license agreement. HSPICE is the trademark of Synopsys, Inc.
  Input File: ptm14lstp.sp                                                      
  Command line options: ptm14lstp.sp
 lic:  
 lic: FLEXlm: v10.8 
 lic: USER:   iliabautista         HOSTNAME: itn1.rc.usf.edu 
 lic: HOSTID:                      PID:      182872 
 lic: Using FLEXlm license file: 
 lic: 27000@license0.rc.usf.edu 
 lic: Checkout 1 hspice 
 lic: License/Maintenance for hspice will expire on 18-jul-2021/2019.06 
 lic: 1(in_use)/50(total) FLOATING license(s) on SERVER license0.rc.usf.edu 
 lic:   
  **warning** (../modelfiles/lstp/14nfet.pm:4) Model nfet device geometries will not be checked against the limits set by lmin, lmax, nfinmin and nfinmax. To enable this check, add a period(.) to the model name(i.e. enable model selector).
1****** HSPICE -- F-2011.09-SP2 64-BIT (Feb 27 2012) linux ******               
 ******  
 $this uut was automatically generated by:

  ******  circuit name directory
 circuit number to circuit name directory
   number circuitname                     definition         multiplier
        0 main circuit
        1 xinput_0.                       inverter           1.00 
        2 xinput_1.                       inverter           1.00 
        3 xinverter00.                    inverter           1.00 
        4 xinverter10.                    inverter           1.00 
        5 xinverter01.                    inverter           1.00 
        6 xinverter11.                    inverter           1.00 
        7 xoutput_00.                     inverter           1.00 
        8 xoutput_10.                     inverter           1.00 
        9 xinput_0.xpfet.                 pfet               1.00 
       10 xinput_0.xnfet.                 nfet               1.00 
       11 xinput_1.xpfet.                 pfet               1.00 
       12 xinput_1.xnfet.                 nfet               1.00 
       13 xinverter00.xpfet.              pfet               1.00 
       14 xinverter00.xnfet.              nfet               1.00 
       15 xinverter10.xpfet.              pfet               1.00 
       16 xinverter10.xnfet.              nfet               1.00 
       17 xinverter01.xpfet.              pfet               1.00 
       18 xinverter01.xnfet.              nfet               1.00 
       19 xinverter11.xpfet.              pfet               1.00 
       20 xinverter11.xnfet.              nfet               1.00 
       21 xoutput_00.xpfet.               pfet               1.00 
       22 xoutput_00.xnfet.               nfet               1.00 
       23 xoutput_10.xpfet.               pfet               1.00 
       24 xoutput_10.xnfet.               nfet               1.00 
1****** HSPICE -- F-2011.09-SP2 64-BIT (Feb 27 2012) linux ******               
 ******  
 $this uut was automatically generated by:

  ******  mos   model parameters tnom=  25.000 temp=  25.000 *****
 Model Name: pfet 
 BSIM-MG BULK Model(Level72)
   VERSION = 105.03  
   DEVTYPE = -1 
   BULKMOD = 1  
   COREMOD = 0 
   GEOMOD = 1 
   RDSMOD = 1 
   IGCMOD = 1 
   IGBMOD = 1 
   GIDLMOD = 0 
   IIMOD = 0 
   NQSMOD = 0 
   SHMOD = 0 
   RGATEMOD = 0 
   RGEOMOD = 1 
   CGEOMOD = 2 
   CAPMOD = 0 
   LINT = 2.5e-10 m
   LL =      0 m^(LLN+1)
   LLN =      1 
   DLC =      0 m
   DLBIN =      0 
   LLC =      0 m^(LLN+1)
   EOT = 9.2e-10 m
   TOXP = 1.3e-09 m
   EOTBOX = 1.4e-07 m
   HFIN = 2.3e-08 m
   FECH =      1 
   DELTAW =      0 m
   FECHCV =      1 
   DELTAWCV =      0 m
   NBODY =  5e+22 m^-3
   NSD =  3e+26 m^-3
   PHIG =  4.574 eV
   EPSROX =    3.9 
   EPSRSUB =   11.9 
   EASUB =   4.05 eV
   NI0SUB = 1.1e+16 m^-3
   BG0SUB =   1.12 eV
   NC0SUB = 2.86e+25 m^-3
   NGATE =      0 m^-3
   CIT = 1.3e-05 F/m^2
   CDSC = 0.0216 F/m^2
   CDSCD =  0.007 F/m^2
   CDSCDR =  0.007 
   DVT0 =   0.01 
   DVT1 =   0.69 
   PHIN =   0.05 V
   ETA0 =   0.74 
   ETA0R =   0.74 
   DSUB =    0.9 
   K1RSCE =      0 V^1/2
   LPE0 =  5e-09 m
   DVTSHIFT =      0 
   QMFACTOR =      0 
   QMTCENIV =      0 
   QMTCENCV =      0 
   AQMTCEN =      0 
   BQMTCEN = 1.2e-08 
   ETAQM =   0.54 
   QM0 = 0.001143 
   PQM =   0.66 
   QM0ACC =  0.001 
   PQMACC =   0.66 
   VSAT = 1.05e+05 
   AVSAT =      0 
   BVSAT =  1e-07 
   VSAT1 = 1.05e+05 
   AVSAT1 =      0 
   BVSAT1 =  1e-07 
   DELTAVSAT =      1 
   KSATIV =    0.8 
   MEXP =      3 
   AMEXP =      0 
   BMEXP =      1 
   PTWG =      0 
   APTWG =      0 
   BPTWG =  1e-07 
   AT = -0.00156 
   TMEXP =      0 
   PTWGT =  0.004 
   U0 =  0.033 
   ETAMOB =      2 
   UP =      0 
   LPA =      1 
   UA =    0.3 
   AUA =      0 
   BUA =  1e-07 
   EU =    1.8 
   AEU =      0 
   BEU =  1e-07 
   UD =      0 
   AUD =      0 
   BUD =  5e-08 
   UCS =      0 
   UTE =      0 
   UTL = -0.0015 
   UA1 = 0.001032 
   UD1 =      0 
   UCSTE = -0.00478 
   RDSWMIN =      0 
   RDSW =    100 
   ARDSW =      0 
   BRDSW =  1e-07 
   RSWMIN =      0 
   RSW =      0 
   ARSW =      0 
   BRSW =  1e-07 
   RDWMIN =      0 
   RDW =      0 
   ARDW =      0 
   BRDW =  1e-07 
   PRWG =      0 
   WR =      1 
   PRT =  0.001 
   PDIBL1 =    1.3 
   PDIBL2 = 0.0002 
   DROUT =   1.06 
   PVAG =      1 
   PCLM =    0.2 
   APCLM =      0 
   BPCLM =  1e-07 
   PCLMG =      0 
   VASAT =    0.6 
   PCLMCV =  0.013 
   PCLMGCV =      0 
   VASATCV =    0.2 
   RGEXT =      0 ohm
   RGFIN =  0.001 ohm
   RSHS =      0 ohm
   RSHD =      0 ohm
   HEPI =  9e-09 m
   TSILI =  8e-09 m
   RHOC =  9e-13 ohm/m^2
   RHORSD =      1 ohm/m
   RHOEXT =      1 ohm/m
   CRATIO =    0.5 
   DELTAPRSD =      0 m
   SDTERM = 0 
   LSP = 3.6e-09 m
   LDG = 2.5e-09 m
   EPSRSP =    3.9 
   TGATE = 8.5e-09 m
   TMASK =      0 m
   ASILIEND =      0 m^2
   ARSDEND =      0 m^2
   PRSDEND =      0 m
   NSDE =  6e+25 m^-3
   RGEOA =      1 
   RGEOB =      0 m^-1
   RGEOC =      0 m^-1
   RGEOD =      0 m^-1
   RGEOE =      0 m^-1
   CGEOA =      1 
   CGEOB =      0 m^-1
   CGEOC =      0 m^-1
   CGEOD =      0 m^-1
   CGEOE =      1 
   AIGBINV = 0.0111 (Fs^2/g)^0.5m^-1
   BIGBINV =   0.03 (Fs^2/g)^0.5m^-1
   CIGBINV =  0.006 V^-1
   EIGBINV =    1.1 V
   NIGBINV =    1.2 
   AIGBACC = 0.0149 
   BIGBACC = 0.000949 
   CIGBACC =  0.075 
   NIGBACC =      3 
   AIGC = 0.0136 (Fs^2/g)^0.5m^-1
   BIGC = 0.00171 (Fs^2/g)^0.5m^-1V^-1
   CIGC =  0.075 V^-1
   NIGC =      1 
   DLCIGS =      0 m
   AIGS = 0.0136 (Fs^2/g)^0.5m^-1
   BIGS = 0.00171 (Fs^2/g)^0.5m^-1V^-1
   CIGS =  0.075 V^-1
   DLCIGD =      0 m
   AIGD = 0.0136 (Fs^2/g)^0.5m^-1
   BIGD = 0.00171 (Fs^2/g)^0.5m^-1V^-1
   CIGD =  0.075 V^-1
   POXEDGE =      1 
   AGIDL = 5.729e-12 ohm^-1
   BGIDL =  3e+08 V/m
   EGIDL =    0.1 V
   AGISL = 5.729e-12 ohm^-1
   BGISL =  3e+08 V/m
   EGISL =    0.1 V
   ALPHA0 =      0 mV^-1
   ALPHA1 =      0 V^-1
   BETA0 =     30 V^-1
   ALPHAII =      0 
   BETAII0 =      0 V^-1
   BETAII1 =      0 
   BETAII2 =    0.1 V
   ESATII =  1e+07 V/m
   LII =  5e-10 V/m
   SII0 =    0.5 V^-1
   SII1 =    0.1 
   SII2 =      0 V
   SIID =      0 V
   EOTACC = 9.2e-10 m
   DELVFBACC =      0 V
   CFS = 2.56e-11 F/m
   CFD = 2.65e-11 F/m
   COVS = 2.5e-11 F/m
   COVD = 2.5e-11 F/m
   CGSO =      0 F/m
   CGDO =      0 F/m
   CGSL =      0 F/m
   CGDL =      0 F/m
   CKAPPAS =    0.6 V
   CKAPPAD =    0.6 V
   CGBO =      0 F/m
   CGBL =      0 F/m
   CKAPPAB =    0.6 V
   CSDESW =      0 F/m
   CJS = 0.0005 F/m^2
   CJD = 0.0005 F/m^2
   CJSWS =  5e-10 F/m
   CJSWD =  5e-10 F/m
   CJSWGS =      0 F/m
   CJSWGD =      0 F/m
   PBS =      1 V
   PBD =      1 V
   PBSWS =      1 V
   PBSWD =      1 V
   PBSWGS =      1 V
   PBSWGD =      1 V
   MJS, =    0.5 
   MJD =    0.5 
   MJSWS =   0.33 
   MJSWD =   0.33 
   MJSWGS =   0.33 
   MJSWGD =   0.33 
   SJS =      0 
   SJD =      0 
   SJSWS =      0 
   SJSWD =      0 
   SJSWGS =      0 
   SJSWGD =      0 
   MJS2 =  0.125 
   MJD2 =  0.125 
   MJSWS2 =   0.33 
   MJSWD2 =   0.33 
   MJSWGS2 =   0.33 
   MJSWGD2 =   0.33 
   JSS = 0.0001 A/m^2
   JSD = 0.0001 A/m^2
   JSWS =      0 A/m
   JSWD =      0 A/m
   JSWGS =      0 A/m
   JSWGD =      0 A/m
   NJS =      1 
   NJD =      1 
   IJTHSFWD =    0.1 A
   IJTHDFWD =    0.1 A
   IJTHSREV =    0.1 A
   IJTHDREV =    0.1 A
   BVS =     10 V
   BVD =     10 V
   XJBVS =      1 
   XJBVD =      1 
   JTSS =      0 A/m^2
   JTSD =      0 A/m^2
   JTSSWS =      0 A/m
   JTSSWD =      0 A/m
   JTSSWGS =      0 A/m
   JTSSWGD =      0 A/m
   JTWEFF =      0 m
   NJTS =     20 
   NJTSD =     20 
   NJTSSW =     20 
   NJTSSWD =     20 
   NJTSSWG =     20 
   NJTSSWGD =     20 
   VTSS =     10 V
   VTSD =     10 V
   VTSSWS =     10 V
   VTSSWD =     10 V
   VTSSWGS =     10 V
   VTSSWGD =     10 V
   LINTIGEN =      0 m
   NTGEN =      1 
   AIGEN =      0 m^-3V^-1
   BIGEN =      0 m^-3V^-3
   XRCRG1 =     12 
   XRCRG2 =      1 
   NSEG = 5 
   EF =      1 
   EM = 4.1e+07 V/m
   NOIA = 6.25e+39 eV^-1s^1-EFm^-3
   NOIB = 3.125e+24 eV^-1s^1-EFm^-1
   NOIC = 8.75e+07 eV^-1s^1-EFm
   NTNOI =      1 
   TNOM =  300.1 K
   TBGASUB = 0.000702 eV/K
   TBGBSUB =   1108 K
   KT1 =      0 V
   KT1L =      0 Vm
   IIT =   -0.5 
   TII =      0 
   TGIDL = -0.0003 K^-1
   IGT =    2.5 
   TCJ =      0 K^-1
   TCJSW =      0 K^-1
   TCJSWG =      0 K^-1
   TPB =      0 K^-1
   TPBSW =      0 K^-1
   TPBSWG =      0 K^-1
   XTIS =      3 
   XTID =      3 
   XTSS =   0.02 
   XTSD =   0.02 
   XTSSWS =   0.02 
   XTSSWD =   0.02 
   XTSSWGS =   0.02 
   XTSSWGD =   0.02 
   TNJTS =      0 
   TNJTSD =      0 
   TNJTSSW =      0 
   TNJTSSWD =      0 
   TNJTSSWG =      0 
   TNJTSSWGD =      0 
   RTH0 =   0.01 ohm
   CTH0 =  1e-05 F
   WTH0 =      0 m
   LNBODY =      0 
   NNBODY =      0 
   PNBODY =      0 
   LPHIG =      0 
   NPHIG =      0 
   PPHIG =      0 
   LNGATE =      0 
   NNGATE =      0 
   PNGATE =      0 
   LCIT =      0 
   NCIT =      0 
   PCIT =      0 
   LCDSC =      0 
   NCDSC =      0 
   PCDSC =      0 
   LCDSCD =      0 
   NCDSCD =      0 
   PCDSCD =      0 
   LCDSCDR =      0 
   NCDSCDR =      0 
   PCDSCDR =      0 
   LDVT0 =      0 
   NDVT0 =      0 
   PDVT0 =      0 
   LDVT1 =      0 
   NDVT1 =      0 
   PDVT1 =      0 
   LPHIN =      0 
   NPHIN =      0 
   PPHIN =      0 
   LETA0 =      0 
   NETA0 =      0 
   PETA0 =      0 
   LETA0R =      0 
   NETA0R =      0 
   PETA0R =      0 
   LDSUB =      0 
   NDSUB =      0 
   PDSUB =      0 
   LK1RSCE =      0 
   NK1RSCE =      0 
   PK1RSCE =      0 
   LLPE0 =      0 
   NLPE0 =      0 
   PLPE0 =      0 
   LQMFACTOR =      0 
   NQMFACTOR =      0 
   PQMFACTOR =      0 
   LQMTCENIV =      0 
   NQMTCENIV =      0 
   PQMTCENIV =      0 
   LQMTCENCV =      0 
   NQMTCENCV =      0 
   PQMTCENCV =      0 
   LVSAT =      0 
   NVSAT =      0 
   PVSAT =      0 
   LKSATIV =      0 
   NKSATIV =      0 
   PKSATIV =      0 
   LMEXP =      0 
   NMEXP =      0 
   PMEXP =      0 
   LPTWG =      0 
   NPTWG =      0 
   PPTWG =      0 
   LTHETASAT =      0 
   NTHETASAT =      0 
   PTHETASAT =      0 
   LU0 =      0 
   NU0 =      0 
   PU0 =      0 
   LUP =      0 
   NUP =      0 
   PUP =      0 
   LUA =      0 
   NUA =      0 
   PUA =      0 
   LEU =      0 
   NEU =      0 
   PEU =      0 
   LUD =      0 
   NUD =      0 
   PUD =      0 
   LUCS =      0 
   NUCS =      0 
   PUCS =      0 
   LPCLM =      0 
   NPCLM =      0 
   PPCLM =      0 
   LPCLMCV =      0 
   NPCLMCV =      0 
   PPCLMCV =      0 
   LRDSW =      0 
   NRDSW =      0 
   PRDSW =      0 
   LRSW =      0 
   NRSW =      0 
   PRSW =      0 
   LRDW =      0 
   NRDW =      0 
   PRDW =      0 
   LPRWG =      0 
   NPRWG =      0 
   PPRWG =      0 
   LWR =      0 
   NWR =      0 
   PWR =      0 
   LPDIBL1 =      0 
   NPDIBL1 =      0 
   PPDIBL1 =      0 
   LPDIBL2 =      0 
   NPDIBL2 =      0 
   PPDIBL2 =      0 
   LDROUT =      0 
   NDROUT =      0 
   PDROUT =      0 
   LPVAG =      0 
   NPVAG =      0 
   PPVAG =      0 
   LAIGBINV =      0 
   NAIGBINV =      0 
   PAIGBINV =      0 
   LBIGBINV =      0 
   NBIGBINV =      0 
   PBIGBINV =      0 
   LCIGBINV =      0 
   NCIGBINV =      0 
   PCIGBINV =      0 
   LEIGBINV =      0 
   NEIGBINV =      0 
   PEIGBINV =      0 
   LNIGBINV =      0 
   NNIGBINV =      0 
   PNIGBINV =      0 
   LAIGC =      0 
   NAIGC =      0 
   PAIGC =      0 
   LBIGC =      0 
   NBIGC =      0 
   PBIGC =      0 
   LCIGC =      0 
   NCIGC =      0 
   PCIGC =      0 
   LNIGC =      0 
   NNIGC =      0 
   PNIGC =      0 
   LAIGS =      0 
   NAIGS =      0 
   PAIGS =      0 
   LBIGS =      0 
   NBIGS =      0 
   PBIGS =      0 
   LCIGS =      0 
   NCIGS =      0 
   PCIGS =      0 
   LAIGD =      0 
   NAIGD =      0 
   PAIGD =      0 
   LBIGD =      0 
   NBIGD =      0 
   PBIGD =      0 
   LCIGD =      0 
   NCIGD =      0 
   PCIGD =      0 
   LPOXEDGE =      0 
   NPOXEDGE =      0 
   PPOXEDGE =      0 
   LAGIDL =      0 
   NAGIDL =      0 
   PAGIDL =      0 
   LBGIDL =      0 
   NBGIDL =      0 
   PBGIDL =      0 
   LEGIDL =      0 
   NEGIDL =      0 
   PEGIDL =      0 
   LAGISL =      0 
   NAGISL =      0 
   PAGISL =      0 
   LBGISL =      0 
   NBGISL =      0 
   PBGISL =      0 
   LEGISL =      0 
   NEGISL =      0 
   PEGISL =      0 
   LALPHA0 =      0 
   NALPHA0 =      0 
   PALPHA0 =      0 
   LALPHA1 =      0 
   NALPHA1 =      0 
   PALPHA1 =      0 
   LBETA0 =      0 
   NBETA0 =      0 
   PBETA0 =      0 
   LALPHAII =      0 
   NALPHAII =      0 
   PALPHAII =      0 
   LBETAII0 =      0 
   NBETAII0 =      0 
   PBETAII0 =      0 
   LBETAII1 =      0 
   NBETAII1 =      0 
   PBETAII1 =      0 
   LBETAII2 =      0 
   NBETAII2 =      0 
   PBETAII2 =      0 
   LESATII =      0 
   NESATII =      0 
   PESATII =      0 
   LLII =      0 
   NLII =      0 
   PLII =      0 
   LSII0 =      0 
   NSII0 =      0 
   PSII0 =      0 
   LSII1 =      0 
   NSII1 =      0 
   PSII1 =      0 
   LSII2 =      0 
   NSII2 =      0 
   PSII2 =      0 
   LSIID =      0 
   NSIID =      0 
   PSIID =      0 
   LCFS =      0 
   NCFS =      0 
   PCFS =      0 
   LCFD =      0 
   NCFD =      0 
   PCFD =      0 
   LCOVS =      0 
   NCOVS =      0 
   PCOVS =      0 
   LCOVD =      0 
   NCOVD =      0 
   PCOVD =      0 
   LCGSL =      0 
   NCGSL =      0 
   PCGSL =      0 
   LCGDL =      0 
   NCGDL =      0 
   PCGDL =      0 
   LCKAPPAS =      0 
   NCKAPPAS =      0 
   PCKAPPAS =      0 
   LCKAPPAD =      0 
   NCKAPPAD =      0 
   PCKAPPAD =      0 
   LCGBL =      0 
   NCGBL =      0 
   PCGBL =      0 
   LCKAPPAB =      0 
   NCKAPPAB =      0 
   PCKAPPAB =      0 
   LNTGEN =      0 
   NNTGEN =      0 
   PNTGEN =      0 
   LAIGEN =      0 
   NAIGEN =      0 
   PAIGEN =      0 
   LBIGEN =      0 
   NBIGEN =      0 
   PBIGEN =      0 
   LXRCRG1 =      0 
   NXRCRG1 =      0 
   PXRCRG1 =      0 
   LXRCRG2 =      0 
   NXRCRG2 =      0 
   PXRCRG2 =      0 
   LINTNOI =      0 
   NINTNOI =      0 
   PINTNOI =      0 
   LUTE =      0 
   NUTE =      0 
   PUTE =      0 
   LUTL =      0 
   NUTL =      0 
   PUTL =      0 
   LUA1 =      0 
   NUA1 =      0 
   PUA1 =      0 
   LUD1 =      0 
   NUD1 =      0 
   PUD1 =      0 
   LUCSTE =      0 
   NUCSTE =      0 
   PUCSTE =      0 
   LPTWGT =      0 
   NPTWGT =      0 
   PPTWGT =      0 
   LAT =      0 
   NAT =      0 
   PAT =      0 
   LSTTHETASAT =      0 
   NSTTHETASAT =      0 
   PSTTHETASAT =      0 
   LPRT =      0 
   NPRT =      0 
   PPRT =      0 
   LIIT =      0 
   NIIT =      0 
   PIIT =      0 
   LTII =      0 
   NTII =      0 
   PTII =      0 
   LTGIDL =      0 
   NTGIDL =      0 
   PTGIDL =      0 
   LIGT =      0 
   NIGT =      0 
   PIGT =      0 
   L = 1.8e-08 m
   D =  4e-08 m
   TFIN =  1e-08 m
   FPITCH = 3.2e-08 m
   NF = 1 
   NFIN = 1 
   NGCON = 1 
   ASEO =      0 m^2
   ADEO =      0 m^2
   PSEO =      0 m
   PDEO =      0 m
   ASEJ =      0 m^2
   ADEJ =      0 m^2
   PSEJ =      0 m
   PDEJ =      0 m
   CGSP =      0 F
   CGDP =      0 F
   CDSP =      0 F
   NRS =      0 
   NRD =      0 
   LRSD = 1.8e-08 m
   XL =      0 m
   DELVTRAND =      0 
   U0MULT =      1 
   IDS0MULT =      1 
   Lmin =  1e-08 m
   Lmax =  3e-08 m
   NFINmin = 0 
   NFINmax = 1 
   LVSAT1 =      0 
   NVSAT1 =      0 
   PVSAT1 =      0 
   LETAMOB =      0 
   NETAMOB =      0 
   PETAMOB =      0 
   LPCLMG =      0 
   NPCLMG =      0 
   PPCLMG =      0 
   LVASAT =      0 
   NVASAT =      0 
   PVASAT =      0 
   LAIGBACC =      0 
   NAIGBACC =      0 
   PAIGBACC =      0 
   LBIGBACC =      0 
   NBIGBACC =      0 
   PBIGBACC =      0 
   LCIGBACC =      0 
   NCIGBACC =      0 
   PCIGBACC =      0 
   LNIGBACC =      0 
   NNIGBACC =      0 
   PNIGBACC =      0 
 Model Name: nfet 
 BSIM-MG BULK Model(Level72)
   VERSION = 105.03  
   DEVTYPE = 1 
   BULKMOD = 1  
   COREMOD = 0 
   GEOMOD = 1 
   RDSMOD = 1 
   IGCMOD = 1 
   IGBMOD = 1 
   GIDLMOD = 0 
   IIMOD = 0 
   NQSMOD = 0 
   SHMOD = 0 
   RGATEMOD = 0 
   RGEOMOD = 1 
   CGEOMOD = 2 
   CAPMOD = 0 
   LINT = 2.5e-10 m
   LL =      0 m^(LLN+1)
   LLN =      1 
   DLC =      0 m
   DLBIN =      0 
   LLC =      0 m^(LLN+1)
   EOT = 9.2e-10 m
   TOXP = 1.3e-09 m
   EOTBOX = 1.4e-07 m
   HFIN = 2.3e-08 m
   FECH =      1 
   DELTAW =      0 m
   FECHCV =      1 
   DELTAWCV =      0 m
   NBODY =  5e+22 m^-3
   NSD =  3e+26 m^-3
   PHIG =  4.603 eV
   EPSROX =    3.9 
   EPSRSUB =   11.9 
   EASUB =   4.05 eV
   NI0SUB = 1.1e+16 m^-3
   BG0SUB =   1.12 eV
   NC0SUB = 2.86e+25 m^-3
   NGATE =      0 m^-3
   CIT = 1.3e-05 F/m^2
   CDSC = 0.0216 F/m^2
   CDSCD =  0.007 F/m^2
   CDSCDR =  0.007 
   DVT0 =   0.01 
   DVT1 =   0.69 
   PHIN =   0.05 V
   ETA0 = 0.5141 
   ETA0R = 0.5141 
   DSUB =    0.9 
   K1RSCE =      0 V^1/2
   LPE0 =  5e-09 m
   DVTSHIFT =      0 
   QMFACTOR =      0 
   QMTCENIV =      0 
   QMTCENCV =      0 
   AQMTCEN =      0 
   BQMTCEN = 1.2e-08 
   ETAQM =   0.54 
   QM0 = 0.001143 
   PQM =   0.66 
   QM0ACC =  0.001 
   PQMACC =   0.66 
   VSAT = 1.1e+05 
   AVSAT =      0 
   BVSAT =  1e-07 
   VSAT1 = 1.1e+05 
   AVSAT1 =      0 
   BVSAT1 =  1e-07 
   DELTAVSAT =      1 
   KSATIV =    0.8 
   MEXP =      3 
   AMEXP =      0 
   BMEXP =      1 
   PTWG =      0 
   APTWG =      0 
   BPTWG =  1e-07 
   AT = -0.00156 
   TMEXP =      0 
   PTWGT =  0.004 
   U0 =  0.052 
   ETAMOB =      2 
   UP =      0 
   LPA =      1 
   UA =    0.3 
   AUA =      0 
   BUA =  1e-07 
   EU =    1.8 
   AEU =      0 
   BEU =  1e-07 
   UD =      0 
   AUD =      0 
   BUD =  5e-08 
   UCS =      0 
   UTE =      0 
   UTL = -0.0015 
   UA1 = 0.001032 
   UD1 =      0 
   UCSTE = -0.00478 
   RDSWMIN =      0 
   RDSW =    100 
   ARDSW =      0 
   BRDSW =  1e-07 
   RSWMIN =      0 
   RSW =      0 
   ARSW =      0 
   BRSW =  1e-07 
   RDWMIN =      0 
   RDW =      0 
   ARDW =      0 
   BRDW =  1e-07 
   PRWG =      0 
   WR =      1 
   PRT =  0.001 
   PDIBL1 =    1.3 
   PDIBL2 = 0.0002 
   DROUT =   1.06 
   PVAG =      1 
   PCLM =    0.2 
   APCLM =      0 
   BPCLM =  1e-07 
   PCLMG =      0 
   VASAT =    0.6 
   PCLMCV =  0.013 
   PCLMGCV =      0 
   VASATCV =    0.2 
   RGEXT =      0 ohm
   RGFIN =  0.001 ohm
   RSHS =      0 ohm
   RSHD =      0 ohm
   HEPI =  9e-09 m
   TSILI =  8e-09 m
   RHOC =  8e-13 ohm/m^2
   RHORSD =      1 ohm/m
   RHOEXT =      1 ohm/m
   CRATIO =    0.5 
   DELTAPRSD =      0 m
   SDTERM = 0 
   LSP = 3.6e-09 m
   LDG = 2.5e-09 m
   EPSRSP =    3.9 
   TGATE = 8.5e-09 m
   TMASK =      0 m
   ASILIEND =      0 m^2
   ARSDEND =      0 m^2
   PRSDEND =      0 m
   NSDE =  6e+25 m^-3
   RGEOA =      1 
   RGEOB =      0 m^-1
   RGEOC =      0 m^-1
   RGEOD =      0 m^-1
   RGEOE =      0 m^-1
   CGEOA =      1 
   CGEOB =      0 m^-1
   CGEOC =      0 m^-1
   CGEOD =      0 m^-1
   CGEOE =      1 
   AIGBINV = 0.0111 (Fs^2/g)^0.5m^-1
   BIGBINV =   0.03 (Fs^2/g)^0.5m^-1
   CIGBINV =  0.006 V^-1
   EIGBINV =    1.1 V
   NIGBINV =    1.2 
   AIGBACC = 0.0149 
   BIGBACC = 0.000949 
   CIGBACC =  0.075 
   NIGBACC =      3 
   AIGC = 0.0136 (Fs^2/g)^0.5m^-1
   BIGC = 0.00171 (Fs^2/g)^0.5m^-1V^-1
   CIGC =  0.075 V^-1
   NIGC =      1 
   DLCIGS =      0 m
   AIGS = 0.0136 (Fs^2/g)^0.5m^-1
   BIGS = 0.00171 (Fs^2/g)^0.5m^-1V^-1
   CIGS =  0.075 V^-1
   DLCIGD =      0 m
   AIGD = 0.0136 (Fs^2/g)^0.5m^-1
   BIGD = 0.00171 (Fs^2/g)^0.5m^-1V^-1
   CIGD =  0.075 V^-1
   POXEDGE =      1 
   AGIDL = 5.729e-12 ohm^-1
   BGIDL =  3e+08 V/m
   EGIDL =    0.1 V
   AGISL = 5.729e-12 ohm^-1
   BGISL =  3e+08 V/m
   EGISL =    0.1 V
   ALPHA0 =      0 mV^-1
   ALPHA1 =      0 V^-1
   BETA0 =     30 V^-1
   ALPHAII =      0 
   BETAII0 =      0 V^-1
   BETAII1 =      0 
   BETAII2 =    0.1 V
   ESATII =  1e+07 V/m
   LII =  5e-10 V/m
   SII0 =    0.5 V^-1
   SII1 =    0.1 
   SII2 =      0 V
   SIID =      0 V
   EOTACC = 9.2e-10 m
   DELVFBACC =      0 V
   CFS = 2.56e-11 F/m
   CFD = 2.65e-11 F/m
   COVS = 2.5e-11 F/m
   COVD = 2.5e-11 F/m
   CGSO =      0 F/m
   CGDO =      0 F/m
   CGSL =      0 F/m
   CGDL =      0 F/m
   CKAPPAS =    0.6 V
   CKAPPAD =    0.6 V
   CGBO =      0 F/m
   CGBL =      0 F/m
   CKAPPAB =    0.6 V
   CSDESW =      0 F/m
   CJS = 0.0005 F/m^2
   CJD = 0.0005 F/m^2
   CJSWS =  5e-10 F/m
   CJSWD =  5e-10 F/m
   CJSWGS =      0 F/m
   CJSWGD =      0 F/m
   PBS =      1 V
   PBD =      1 V
   PBSWS =      1 V
   PBSWD =      1 V
   PBSWGS =      1 V
   PBSWGD =      1 V
   MJS, =    0.5 
   MJD =    0.5 
   MJSWS =   0.33 
   MJSWD =   0.33 
   MJSWGS =   0.33 
   MJSWGD =   0.33 
   SJS =      0 
   SJD =      0 
   SJSWS =      0 
   SJSWD =      0 
   SJSWGS =      0 
   SJSWGD =      0 
   MJS2 =  0.125 
   MJD2 =  0.125 
   MJSWS2 =   0.33 
   MJSWD2 =   0.33 
   MJSWGS2 =   0.33 
   MJSWGD2 =   0.33 
   JSS = 0.0001 A/m^2
   JSD = 0.0001 A/m^2
   JSWS =      0 A/m
   JSWD =      0 A/m
   JSWGS =      0 A/m
   JSWGD =      0 A/m
   NJS =      1 
   NJD =      1 
   IJTHSFWD =    0.1 A
   IJTHDFWD =    0.1 A
   IJTHSREV =    0.1 A
   IJTHDREV =    0.1 A
   BVS =     10 V
   BVD =     10 V
   XJBVS =      1 
   XJBVD =      1 
   JTSS =      0 A/m^2
   JTSD =      0 A/m^2
   JTSSWS =      0 A/m
   JTSSWD =      0 A/m
   JTSSWGS =      0 A/m
   JTSSWGD =      0 A/m
   JTWEFF =      0 m
   NJTS =     20 
   NJTSD =     20 
   NJTSSW =     20 
   NJTSSWD =     20 
   NJTSSWG =     20 
   NJTSSWGD =     20 
   VTSS =     10 V
   VTSD =     10 V
   VTSSWS =     10 V
   VTSSWD =     10 V
   VTSSWGS =     10 V
   VTSSWGD =     10 V
   LINTIGEN =      0 m
   NTGEN =      1 
   AIGEN =      0 m^-3V^-1
   BIGEN =      0 m^-3V^-3
   XRCRG1 =     12 
   XRCRG2 =      1 
   NSEG = 5 
   EF =      1 
   EM = 4.1e+07 V/m
   NOIA = 6.25e+39 eV^-1s^1-EFm^-3
   NOIB = 3.125e+24 eV^-1s^1-EFm^-1
   NOIC = 8.75e+07 eV^-1s^1-EFm
   NTNOI =      1 
   TNOM =  300.1 K
   TBGASUB = 0.000702 eV/K
   TBGBSUB =   1108 K
   KT1 =      0 V
   KT1L =      0 Vm
   IIT =   -0.5 
   TII =      0 
   TGIDL = -0.0003 K^-1
   IGT =    2.5 
   TCJ =      0 K^-1
   TCJSW =      0 K^-1
   TCJSWG =      0 K^-1
   TPB =      0 K^-1
   TPBSW =      0 K^-1
   TPBSWG =      0 K^-1
   XTIS =      3 
   XTID =      3 
   XTSS =   0.02 
   XTSD =   0.02 
   XTSSWS =   0.02 
   XTSSWD =   0.02 
   XTSSWGS =   0.02 
   XTSSWGD =   0.02 
   TNJTS =      0 
   TNJTSD =      0 
   TNJTSSW =      0 
   TNJTSSWD =      0 
   TNJTSSWG =      0 
   TNJTSSWGD =      0 
   RTH0 =   0.01 ohm
   CTH0 =  1e-05 F
   WTH0 =      0 m
   LNBODY =      0 
   NNBODY =      0 
   PNBODY =      0 
   LPHIG =      0 
   NPHIG =      0 
   PPHIG =      0 
   LNGATE =      0 
   NNGATE =      0 
   PNGATE =      0 
   LCIT =      0 
   NCIT =      0 
   PCIT =      0 
   LCDSC =      0 
   NCDSC =      0 
   PCDSC =      0 
   LCDSCD =      0 
   NCDSCD =      0 
   PCDSCD =      0 
   LCDSCDR =      0 
   NCDSCDR =      0 
   PCDSCDR =      0 
   LDVT0 =      0 
   NDVT0 =      0 
   PDVT0 =      0 
   LDVT1 =      0 
   NDVT1 =      0 
   PDVT1 =      0 
   LPHIN =      0 
   NPHIN =      0 
   PPHIN =      0 
   LETA0 =      0 
   NETA0 =      0 
   PETA0 =      0 
   LETA0R =      0 
   NETA0R =      0 
   PETA0R =      0 
   LDSUB =      0 
   NDSUB =      0 
   PDSUB =      0 
   LK1RSCE =      0 
   NK1RSCE =      0 
   PK1RSCE =      0 
   LLPE0 =      0 
   NLPE0 =      0 
   PLPE0 =      0 
   LQMFACTOR =      0 
   NQMFACTOR =      0 
   PQMFACTOR =      0 
   LQMTCENIV =      0 
   NQMTCENIV =      0 
   PQMTCENIV =      0 
   LQMTCENCV =      0 
   NQMTCENCV =      0 
   PQMTCENCV =      0 
   LVSAT =      0 
   NVSAT =      0 
   PVSAT =      0 
   LKSATIV =      0 
   NKSATIV =      0 
   PKSATIV =      0 
   LMEXP =      0 
   NMEXP =      0 
   PMEXP =      0 
   LPTWG =      0 
   NPTWG =      0 
   PPTWG =      0 
   LTHETASAT =      0 
   NTHETASAT =      0 
   PTHETASAT =      0 
   LU0 =      0 
   NU0 =      0 
   PU0 =      0 
   LUP =      0 
   NUP =      0 
   PUP =      0 
   LUA =      0 
   NUA =      0 
   PUA =      0 
   LEU =      0 
   NEU =      0 
   PEU =      0 
   LUD =      0 
   NUD =      0 
   PUD =      0 
   LUCS =      0 
   NUCS =      0 
   PUCS =      0 
   LPCLM =      0 
   NPCLM =      0 
   PPCLM =      0 
   LPCLMCV =      0 
   NPCLMCV =      0 
   PPCLMCV =      0 
   LRDSW =      0 
   NRDSW =      0 
   PRDSW =      0 
   LRSW =      0 
   NRSW =      0 
   PRSW =      0 
   LRDW =      0 
   NRDW =      0 
   PRDW =      0 
   LPRWG =      0 
   NPRWG =      0 
   PPRWG =      0 
   LWR =      0 
   NWR =      0 
   PWR =      0 
   LPDIBL1 =      0 
   NPDIBL1 =      0 
   PPDIBL1 =      0 
   LPDIBL2 =      0 
   NPDIBL2 =      0 
   PPDIBL2 =      0 
   LDROUT =      0 
   NDROUT =      0 
   PDROUT =      0 
   LPVAG =      0 
   NPVAG =      0 
   PPVAG =      0 
   LAIGBINV =      0 
   NAIGBINV =      0 
   PAIGBINV =      0 
   LBIGBINV =      0 
   NBIGBINV =      0 
   PBIGBINV =      0 
   LCIGBINV =      0 
   NCIGBINV =      0 
   PCIGBINV =      0 
   LEIGBINV =      0 
   NEIGBINV =      0 
   PEIGBINV =      0 
   LNIGBINV =      0 
   NNIGBINV =      0 
   PNIGBINV =      0 
   LAIGC =      0 
   NAIGC =      0 
   PAIGC =      0 
   LBIGC =      0 
   NBIGC =      0 
   PBIGC =      0 
   LCIGC =      0 
   NCIGC =      0 
   PCIGC =      0 
   LNIGC =      0 
   NNIGC =      0 
   PNIGC =      0 
   LAIGS =      0 
   NAIGS =      0 
   PAIGS =      0 
   LBIGS =      0 
   NBIGS =      0 
   PBIGS =      0 
   LCIGS =      0 
   NCIGS =      0 
   PCIGS =      0 
   LAIGD =      0 
   NAIGD =      0 
   PAIGD =      0 
   LBIGD =      0 
   NBIGD =      0 
   PBIGD =      0 
   LCIGD =      0 
   NCIGD =      0 
   PCIGD =      0 
   LPOXEDGE =      0 
   NPOXEDGE =      0 
   PPOXEDGE =      0 
   LAGIDL =      0 
   NAGIDL =      0 
   PAGIDL =      0 
   LBGIDL =      0 
   NBGIDL =      0 
   PBGIDL =      0 
   LEGIDL =      0 
   NEGIDL =      0 
   PEGIDL =      0 
   LAGISL =      0 
   NAGISL =      0 
   PAGISL =      0 
   LBGISL =      0 
   NBGISL =      0 
   PBGISL =      0 
   LEGISL =      0 
   NEGISL =      0 
   PEGISL =      0 
   LALPHA0 =      0 
   NALPHA0 =      0 
   PALPHA0 =      0 
   LALPHA1 =      0 
   NALPHA1 =      0 
   PALPHA1 =      0 
   LBETA0 =      0 
   NBETA0 =      0 
   PBETA0 =      0 
   LALPHAII =      0 
   NALPHAII =      0 
   PALPHAII =      0 
   LBETAII0 =      0 
   NBETAII0 =      0 
   PBETAII0 =      0 
   LBETAII1 =      0 
   NBETAII1 =      0 
   PBETAII1 =      0 
   LBETAII2 =      0 
   NBETAII2 =      0 
   PBETAII2 =      0 
   LESATII =      0 
   NESATII =      0 
   PESATII =      0 
   LLII =      0 
   NLII =      0 
   PLII =      0 
   LSII0 =      0 
   NSII0 =      0 
   PSII0 =      0 
   LSII1 =      0 
   NSII1 =      0 
   PSII1 =      0 
   LSII2 =      0 
   NSII2 =      0 
   PSII2 =      0 
   LSIID =      0 
   NSIID =      0 
   PSIID =      0 
   LCFS =      0 
   NCFS =      0 
   PCFS =      0 
   LCFD =      0 
   NCFD =      0 
   PCFD =      0 
   LCOVS =      0 
   NCOVS =      0 
   PCOVS =      0 
   LCOVD =      0 
   NCOVD =      0 
   PCOVD =      0 
   LCGSL =      0 
   NCGSL =      0 
   PCGSL =      0 
   LCGDL =      0 
   NCGDL =      0 
   PCGDL =      0 
   LCKAPPAS =      0 
   NCKAPPAS =      0 
   PCKAPPAS =      0 
   LCKAPPAD =      0 
   NCKAPPAD =      0 
   PCKAPPAD =      0 
   LCGBL =      0 
   NCGBL =      0 
   PCGBL =      0 
   LCKAPPAB =      0 
   NCKAPPAB =      0 
   PCKAPPAB =      0 
   LNTGEN =      0 
   NNTGEN =      0 
   PNTGEN =      0 
   LAIGEN =      0 
   NAIGEN =      0 
   PAIGEN =      0 
   LBIGEN =      0 
   NBIGEN =      0 
   PBIGEN =      0 
   LXRCRG1 =      0 
   NXRCRG1 =      0 
   PXRCRG1 =      0 
   LXRCRG2 =      0 
   NXRCRG2 =      0 
   PXRCRG2 =      0 
   LINTNOI =      0 
   NINTNOI =      0 
   PINTNOI =      0 
   LUTE =      0 
   NUTE =      0 
   PUTE =      0 
   LUTL =      0 
   NUTL =      0 
   PUTL =      0 
   LUA1 =      0 
   NUA1 =      0 
   PUA1 =      0 
   LUD1 =      0 
   NUD1 =      0 
   PUD1 =      0 
   LUCSTE =      0 
   NUCSTE =      0 
   PUCSTE =      0 
   LPTWGT =      0 
   NPTWGT =      0 
   PPTWGT =      0 
   LAT =      0 
   NAT =      0 
   PAT =      0 
   LSTTHETASAT =      0 
   NSTTHETASAT =      0 
   PSTTHETASAT =      0 
   LPRT =      0 
   NPRT =      0 
   PPRT =      0 
   LIIT =      0 
   NIIT =      0 
   PIIT =      0 
   LTII =      0 
   NTII =      0 
   PTII =      0 
   LTGIDL =      0 
   NTGIDL =      0 
   PTGIDL =      0 
   LIGT =      0 
   NIGT =      0 
   PIGT =      0 
   L = 1.8e-08 m
   D =  4e-08 m
   TFIN =  1e-08 m
   FPITCH = 3.2e-08 m
   NF = 1 
   NFIN = 1 
   NGCON = 1 
   ASEO =      0 m^2
   ADEO =      0 m^2
   PSEO =      0 m
   PDEO =      0 m
   ASEJ =      0 m^2
   ADEJ =      0 m^2
   PSEJ =      0 m
   PDEJ =      0 m
   CGSP =      0 F
   CGDP =      0 F
   CDSP =      0 F
   NRS =      0 
   NRD =      0 
   LRSD = 1.8e-08 m
   XL =      0 m
   DELVTRAND =      0 
   U0MULT =      1 
   IDS0MULT =      1 
   Lmin =  1e-08 m
   Lmax =  3e-08 m
   NFINmin = 0 
   NFINmax = 1 
   LVSAT1 =      0 
   NVSAT1 =      0 
   PVSAT1 =      0 
   LETAMOB =      0 
   NETAMOB =      0 
   PETAMOB =      0 
   LPCLMG =      0 
   NPCLMG =      0 
   PPCLMG =      0 
   LVASAT =      0 
   NVASAT =      0 
   PVASAT =      0 
   LAIGBACC =      0 
   NAIGBACC =      0 
   PAIGBACC =      0 
   LBIGBACC =      0 
   NBIGBACC =      0 
   PBIGBACC =      0 
   LCIGBACC =      0 
   NCIGBACC =      0 
   PCIGBACC =      0 
   LNIGBACC =      0 
   NNIGBACC =      0 
   PNIGBACC =      0 
  **info** (ptm14lstp.sp:8) DC voltage reset to initial transient source value              in source        0:vin_0               new dc=  0.8000D+00
  
 **warning**  No DC path to ground from node        0:outin_30         defined in subckt 0               ; Connected by HSPICE with gdcpath


      
 **info** set option symb=1 internally to help for convergence.
 *****************************************************************
 ******  option summary
 ******
 runlvl  = 3         bypass  = 2         
  Opening plot unit= 15
 file=ptm14lstp.pa0                                                            

1****** HSPICE -- F-2011.09-SP2 64-BIT (Feb 27 2012) linux ******               
 ******  
 $this uut was automatically generated by:

  ******  operating point information tnom=  25.000 temp=  25.000 *****
 ***** operating point status is voltage   simulation time is     0.     
     node    =voltage       node    =voltage       node    =voltage

 + 0:inb_0   = 800.0000m  0:inb_1   = 800.0000m  0:outb_00 = 799.9991m
 + 0:outb_10 = 799.9991m  0:outin_00= 953.6673n  0:outin_01= 953.6673n
 + 0:outin_10= 799.9991m  0:outin_11= 799.9991m  0:outin_20= 953.6762n
 + 0:outin_21= 953.6762n  0:outin_30=   3.9031m  0:outin_31=   3.9031m
 + 0:vdd     = 800.0000m

 ******  
 $this uut was automatically generated by:

  ******  transient analysis tnom=  25.000 temp=  25.000 *****
 inv_avg_power00=   4.3675u  from=   0.          to=   4.0000n
 peakpower00=   1.2902m    at=   3.0979n
             from=   0.         to=   4.0000n
 inv_avg_power10=  48.1611n  from=   0.          to=   4.0000n
 peakpower10=  18.3709u    at=   3.1056n
             from=   0.         to=   4.0000n
 inv_avg_power01=  47.7127n  from=   0.          to=   4.0000n
 peakpower01=   7.1603u    at=   2.0853n
             from=   0.         to=   4.0000n
 inv_avg_power11=  15.8275n  from=   0.          to=   4.0000n
 peakpower11=   6.0324u    at=   2.0853n
             from=   0.         to=   4.0000n
 source_power=   5.8580u  from=   0.          to=   4.0000n
 trf_delay_001=  21.6944f  targ=  35.5391p   trig=  35.5174p
 tfr_delay_001=   4.4535p  targ=   1.0862n   trig=   1.0818n
 trf_delay_002=   4.5190p  targ=   2.0364n   trig=   2.0318n
 tfr_delay_002=   3.7345p  targ=   3.0848n   trig=   3.0811n
 trf_delay_101=   1.7503p  targ=   1.0880n   trig=   1.0862n
 tfr_delay_101=-298.0703f  targ=  35.2411p   trig=  35.5391p
 trf_delay_102=   3.3270p  targ=   3.0882n   trig=   3.0848n
 tfr_delay_102=   1.8184p  targ=   2.0382n   trig=   2.0364n
 trf_delay_011=  21.6944f  targ=  35.5391p   trig=  35.5174p
 tfr_delay_011=   3.8836p  targ=   2.0840n   trig=   2.0801n
 trf_delay_111=   1.8438p  targ=   2.0859n   trig=   2.0840n
 tfr_delay_111=-298.0703f  targ=  35.2411p   trig=  35.5391p
x

        time    voltage      voltage    
                 outin_00     outin_10  
    0.          953.6673n    799.9991m  
   10.00000p     -2.4688m    800.0225m  
   20.00000p     25.2351m    775.3704m  
   30.00000p    212.8218m    588.6816m  
   40.00000p    579.1966m    220.7961m  
   50.00000p    816.2370m    -23.3214m  
   60.00000p    799.8351m     68.5906u  
   70.00000p    800.1168m    -54.5701u  
   80.00000p    799.9221m     31.9352u  
   90.00000p    800.0346m    -11.6590u  
  100.00000p    800.0991m    -36.8954u  
  110.00000p    800.0434m    -16.1132u  
  120.00000p    799.9876m      4.6691u  
  130.00000p    799.9318m     25.4513u  
  140.00000p    799.8977m     38.2150u  
  150.00000p    799.9276m     27.3378u  
  160.00000p    799.9574m     16.4605u  
  170.00000p    799.9873m      5.5833u  
  180.00000p    800.0171m     -5.2939u  
  190.00000p    800.0470m    -16.1711u  
  200.00000p    800.0768m    -27.0484u  
  210.00000p    800.1033m    -36.7240u  
  220.00000p    800.0898m    -31.8503u  
  230.00000p    800.0763m    -26.9766u  
  240.00000p    800.0627m    -22.1030u  
  250.00000p    800.0492m    -17.2293u  
  260.00000p    800.0357m    -12.3556u  
  270.00000p    800.0222m     -7.4819u  
  280.00000p    800.0086m     -2.6083u  
  290.00000p    799.9951m      2.2654u  
  300.00000p    799.9816m      7.1391u  
  310.00000p    799.9680m     12.0128u  
  320.00000p    799.9545m     16.8865u  
  330.00000p    799.9410m     21.7601u  
  340.00000p    799.9275m     26.6338u  
  350.00000p    799.9139m     31.5075u  
  360.00000p    799.9004m     36.3812u  
  370.00000p    799.9022m     35.7515u  
  380.00000p    799.9125m     32.0685u  
  390.00000p    799.9228m     28.3855u  
  400.00000p    799.9331m     24.7025u  
  410.00000p    799.9434m     21.0194u  
  420.00000p    799.9536m     17.3364u  
  430.00000p    799.9639m     13.6534u  
  440.00000p    799.9742m      9.9704u  
  450.00000p    799.9845m      6.2873u  
  460.00000p    799.9948m      2.6043u  
  470.00000p    800.0051m     -1.0787u  
  480.00000p    800.0154m     -4.7617u  
  490.00000p    800.0257m     -8.4448u  
  500.00000p    800.0360m    -12.1278u  
  510.00000p    800.0463m    -15.8108u  
  520.00000p    800.0566m    -19.4938u  
  530.00000p    800.0669m    -23.1769u  
  540.00000p    800.0772m    -26.8599u  
  550.00000p    800.0875m    -30.5429u  
  560.00000p    800.0977m    -34.2259u  
  570.00000p    800.0949m    -33.2142u  
  580.00000p    800.0847m    -29.5976u  
  590.00000p    800.0745m    -25.9810u  
  600.00000p    800.0644m    -22.3644u  
  610.00000p    800.0542m    -18.7478u  
  620.00000p    800.0440m    -15.1313u  
  630.00000p    800.0339m    -11.5147u  
  640.00000p    800.0237m     -7.8981u  
  650.00000p    800.0136m     -4.2815u  
  660.00000p    800.0034m   -664.9390n  
  670.00000p    799.9932m      2.9516u  
  680.00000p    799.9831m      6.5682u  
  690.00000p    799.9729m     10.1848u  
  700.00000p    799.9627m     13.8014u  
  710.00000p    799.9526m     17.4180u  
  720.00000p    799.9424m     21.0345u  
  730.00000p    799.9322m     24.6511u  
  740.00000p    799.9221m     28.2677u  
  750.00000p    799.9119m     31.8843u  
  760.00000p    799.9017m     35.5009u  
  770.00000p    799.9046m     34.5075u  
  780.00000p    799.9146m     30.9563u  
  790.00000p    799.9246m     27.4051u  
  800.00000p    799.9347m     23.8539u  
  810.00000p    799.9447m     20.3027u  
  820.00000p    799.9548m     16.7515u  
  830.00000p    799.9648m     13.2003u  
  840.00000p    799.9748m      9.6492u  
  850.00000p    799.9849m      6.0980u  
  860.00000p    799.9949m      2.5468u  
  870.00000p    800.0050m     -1.0044u  
  880.00000p    800.0150m     -4.5556u  
  890.00000p    800.0250m     -8.1068u  
  900.00000p    800.0351m    -11.6580u  
  910.00000p    800.0451m    -15.2091u  
  920.00000p    800.0552m    -18.7603u  
  930.00000p    800.0652m    -22.3115u  
  940.00000p    800.0753m    -25.8627u  
  950.00000p    800.0853m    -29.4139u  
  960.00000p    800.0953m    -32.9651u  
  970.00000p    800.0843m    -29.1043u  
  980.00000p    800.0615m    -21.1310u  
  990.00000p    800.0387m    -13.1578u  
    1.00000n    800.0160m     -5.1846u  
    1.01000n    799.9932m      2.7886u  
    1.02000n    799.9704m     10.7618u  
    1.03000n    799.9477m     18.7350u  
    1.04000n    799.9249m     26.7083u  
    1.05000n    799.9022m     34.6815u  
    1.06000n    803.3991m     -9.7905u  
    1.07000n    783.5657m   -480.7033u  
    1.08000n    494.5544m     -2.0597m  
    1.09000n     10.3236m    764.7826m  
    1.10000n      2.8234m    800.6371m  
    1.11000n      3.0961u    800.0060m  
    1.12000n     -1.4490u    799.9877m  
    1.13000n    823.8593n    799.9983m  
    1.14000n      3.0967u    800.0089m  
    1.15000n      2.8538u    800.0077m  
    1.16000n      1.7715u    800.0025m  
    1.17000n    689.2135n    799.9973m  
    1.18000n      0.         799.9922m  
    1.19000n     -1.4754u    799.9870m  
    1.20000n     -1.4785u    799.9870m  
    1.21000n     -1.0160u    799.9892m  
    1.22000n   -553.5348n    799.9914m  
    1.23000n      0.         799.9937m  
    1.24000n      0.         799.9959m  
    1.25000n    833.9180n    799.9981m  
    1.26000n      1.2964u    800.0003m  
    1.27000n      1.7589u    800.0026m  
    1.28000n      2.2214u    800.0048m  
    1.29000n      2.6839u    800.0070m  
    1.30000n      3.1463u    800.0093m  
    1.31000n      3.6088u    800.0115m  
    1.32000n      3.5218u    800.0111m  
    1.33000n      3.2438u    800.0097m  
    1.34000n      2.9658u    800.0084m  
    1.35000n      2.6878u    800.0070m  
    1.36000n      2.4097u    800.0057m  
    1.37000n      2.1317u    800.0043m  
    1.38000n      1.8537u    800.0030m  
    1.39000n      1.5757u    800.0017m  
    1.40000n      1.2977u    800.0003m  
    1.41000n      1.0197u    799.9990m  
    1.42000n    741.7000n    799.9976m  
    1.43000n      0.         799.9963m  
    1.44000n      0.         799.9949m  
    1.45000n      0.         799.9936m  
    1.46000n      0.         799.9923m  
    1.47000n   -648.3395n    799.9909m  
    1.48000n   -926.3474n    799.9896m  
    1.49000n     -1.2044u    799.9882m  
    1.50000n     -1.4824u    799.9869m  
    1.51000n     -1.7604u    799.9855m  
    1.52000n     -1.6249u    799.9862m  
    1.53000n     -1.3457u    799.9875m  
    1.54000n     -1.0666u    799.9889m  
    1.55000n   -787.3879n    799.9902m  
    1.56000n   -508.2200n    799.9916m  
    1.57000n      0.         799.9930m  
    1.58000n      0.         799.9943m  
    1.59000n      0.         799.9957m  
    1.60000n    608.4515n    799.9970m  
    1.61000n    887.6194n    799.9984m  
    1.62000n      1.1668u    799.9997m  
    1.63000n      1.4460u    800.0011m  
    1.64000n      1.7251u    800.0024m  
    1.65000n      2.0043u    800.0038m  
    1.66000n      2.2835u    800.0051m  
    1.67000n      2.5626u    800.0065m  
    1.68000n      2.8418u    800.0078m  
    1.69000n      3.1210u    800.0092m  
    1.70000n      3.4001u    800.0105m  
    1.71000n      3.6793u    800.0119m  
    1.72000n      3.5433u    800.0112m  
    1.73000n      3.2629u    800.0099m  
    1.74000n      2.9826u    800.0085m  
    1.75000n      2.7022u    800.0071m  
    1.76000n      2.4219u    800.0058m  
    1.77000n      2.1416u    800.0044m  
    1.78000n      1.8612u    800.0031m  
    1.79000n      1.5809u    800.0017m  
    1.80000n      1.3006u    800.0003m  
    1.81000n      1.0202u    799.9990m  
    1.82000n    739.8809n    799.9976m  
    1.83000n      0.         799.9963m  
    1.84000n      0.         799.9949m  
    1.85000n      0.         799.9935m  
    1.86000n      0.         799.9922m  
    1.87000n   -661.8037n    799.9908m  
    1.88000n   -942.1406n    799.9895m  
    1.89000n     -1.2225u    799.9881m  
    1.90000n     -1.5028u    799.9867m  
    1.91000n     -1.7832u    799.9854m  
    1.92000n     -1.3761u    799.9874m  
    1.93000n   -730.2579n    799.9905m  
    1.94000n      0.         799.9936m  
    1.95000n    561.4937n    799.9968m  
    1.96000n      1.2074u    799.9999m  
    1.97000n      1.8532u    800.0031m  
    1.98000n      2.4991u    800.0062m  
    1.99000n      3.1450u    800.0094m  
    2.00000n      3.7909u    800.0125m  
    2.01000n     -2.7755m    800.0066m  
    2.02000n     17.4867m    800.5667m  
    2.03000n    305.8001m    805.2775m  
    2.04000n    776.3372m     40.3989m  
    2.05000n    797.4045m      1.1727m  
    2.06000n    799.9831m     -4.7386u  
    2.07000n    800.0339m     23.6183u  
    2.08000n    799.9890m     -9.5487u  
    2.09000n    800.0021m    684.4508n  
    2.10000n    799.9990m    507.5581n  
    2.11000n    799.9991m    950.6392n  
    2.12000n    799.9991m    958.2225n  
    2.13000n    799.9991m    949.1005n  
    2.14000n    799.9991m    950.3153n  
    2.15000n    799.9991m    953.1309n  
    2.16000n    799.9991m    955.9464n  
    2.17000n    799.9991m    958.7620n  
    2.18000n    799.9991m    959.4745n  
    2.19000n    799.9991m    958.5227n  
    2.20000n    799.9991m    957.5708n  
    2.21000n    799.9991m    956.6189n  
    2.22000n    799.9991m    955.6670n  
    2.23000n    799.9991m    954.7151n  
    2.24000n    799.9991m    953.7632n  
    2.25000n    799.9991m    952.8113n  
    2.26000n    799.9991m    951.8594n  
    2.27000n    799.9991m    950.9075n  
    2.28000n    799.9991m    949.9557n  
    2.29000n    799.9991m    949.0038n  
    2.30000n    799.9991m    948.0519n  
    2.31000n    799.9991m    948.4481n  
    2.32000n    799.9991m    949.0511n  
    2.33000n    799.9991m    949.6542n  
    2.34000n    799.9991m    950.2572n  
    2.35000n    799.9991m    950.8602n  
    2.36000n    799.9991m    951.4633n  
    2.37000n    799.9991m    952.0663n  
    2.38000n    799.9991m    952.6694n  
    2.39000n    799.9991m    953.2724n  
    2.40000n    799.9991m    953.8754n  
    2.41000n    799.9991m    954.4785n  
    2.42000n    799.9991m    955.0815n  
    2.43000n    799.9991m    955.6846n  
    2.44000n    799.9991m    956.2876n  
    2.45000n    799.9991m    956.8907n  
    2.46000n    799.9991m    957.4937n  
    2.47000n    799.9991m    958.0967n  
    2.48000n    799.9991m    958.6998n  
    2.49000n    799.9991m    959.3028n  
    2.50000n    799.9991m    959.9059n  
    2.51000n    799.9991m    959.4639n  
    2.52000n    799.9991m    958.8617n  
    2.53000n    799.9991m    958.2594n  
    2.54000n    799.9991m    957.6571n  
    2.55000n    799.9991m    957.0548n  
    2.56000n    799.9991m    956.4526n  
    2.57000n    799.9991m    955.8503n  
    2.58000n    799.9991m    955.2480n  
    2.59000n    799.9991m    954.6457n  
    2.60000n    799.9991m    954.0435n  
    2.61000n    799.9991m    953.4412n  
    2.62000n    799.9991m    952.8389n  
    2.63000n    799.9991m    952.2366n  
    2.64000n    799.9991m    951.6344n  
    2.65000n    799.9991m    951.0321n  
    2.66000n    799.9991m    950.4298n  
    2.67000n    799.9991m    949.8275n  
    2.68000n    799.9991m    949.2253n  
    2.69000n    799.9991m    948.6230n  
    2.70000n    799.9991m    948.0207n  
    2.71000n    799.9991m    948.4621n  
    2.72000n    799.9991m    949.0636n  
    2.73000n    799.9991m    949.6651n  
    2.74000n    799.9991m    950.2666n  
    2.75000n    799.9991m    950.8681n  
    2.76000n    799.9991m    951.4696n  
    2.77000n    799.9991m    952.0711n  
    2.78000n    799.9991m    952.6726n  
    2.79000n    799.9991m    953.2741n  
    2.80000n    799.9991m    953.8757n  
    2.81000n    799.9991m    954.4772n  
    2.82000n    799.9991m    955.0787n  
    2.83000n    799.9991m    955.6802n  
    2.84000n    799.9991m    956.2817n  
    2.85000n    799.9991m    956.8832n  
    2.86000n    799.9991m    957.4847n  
    2.87000n    799.9991m    958.0862n  
    2.88000n    799.9991m    958.6877n  
    2.89000n    799.9991m    959.2892n  
    2.90000n    799.9991m    959.8907n  
    2.91000n    799.9991m    959.2702n  
    2.92000n    799.9991m    958.4623n  
    2.93000n    799.9991m    957.6543n  
    2.94000n    799.9991m    956.8463n  
    2.95000n    799.9991m    956.0383n  
    2.96000n    799.9991m    955.2304n  
    2.97000n    799.9991m    954.4224n  
    2.98000n    799.9991m    953.6144n  
    2.99000n    799.9991m    952.8064n  
    3.00000n    799.9991m    951.9985n  
    3.01000n    799.9991m    951.1905n  
    3.02000n    799.9991m    950.3825n  
    3.03000n    799.9991m    949.5745n  
    3.04000n    799.9991m    948.7666n  
    3.05000n    799.9991m    947.9586n  
    3.06000n    803.3363m      3.8725u  
    3.07000n    668.3460m     -2.7967m  
    3.08000n    444.2303m    120.5023m  
    3.09000n     26.0479m    724.8441m  
    3.10000n   -980.7423m      3.0241   
    3.11000n     -1.4540       1.4306   
    3.12000n     -2.3194m    803.4517m  
    3.13000n     -5.3405u    799.9893m  
    3.14000n      7.7235u    800.0081m  
    3.15000n      0.         799.9979m  
    3.16000n     -7.0686u    799.9890m  
    3.17000n     -3.3389u    799.9937m  
    3.18000n      0.         799.9984m  
    3.19000n      4.1207u    800.0030m  
    3.20000n      7.8505u    800.0077m  
    3.21000n      8.2407u    800.0082m  
    3.22000n      6.5878u    800.0061m  
    3.23000n      4.9348u    800.0041m  
    3.24000n      3.2818u    800.0020m  
    3.25000n      1.6289u    800.0000m  
    3.26000n      0.         799.9979m  
    3.27000n     -1.6770u    799.9959m  
    3.28000n     -3.3300u    799.9938m  
    3.29000n     -4.9829u    799.9918m  
    3.30000n     -6.6359u    799.9897m  
    3.31000n     -6.8229u    799.9895m  
    3.32000n     -5.9348u    799.9906m  
    3.33000n     -5.0466u    799.9917m  
    3.34000n     -4.1584u    799.9928m  
    3.35000n     -3.2702u    799.9939m  
    3.36000n     -2.3821u    799.9950m  
    3.37000n     -1.4939u    799.9961m  
    3.38000n   -605.7195n    799.9972m  
    3.39000n      0.         799.9983m  
    3.40000n      1.1706u    799.9994m  
    3.41000n      2.0588u    800.0005m  
    3.42000n      2.9470u    800.0016m  
    3.43000n      3.8351u    800.0027m  
    3.44000n      4.7233u    800.0038m  
    3.45000n      5.6115u    800.0048m  
    3.46000n      6.4997u    800.0059m  
    3.47000n      7.3878u    800.0070m  
    3.48000n      8.2760u    800.0081m  
    3.49000n      9.1642u    800.0092m  
    3.50000n      8.5278u    800.0085m  
    3.51000n      7.6984u    800.0074m  
    3.52000n      6.8690u    800.0064m  
    3.53000n      6.0396u    800.0054m  
    3.54000n      5.2102u    800.0044m  
    3.55000n      4.3808u    800.0033m  
    3.56000n      3.5514u    800.0023m  
    3.57000n      2.7220u    800.0013m  
    3.58000n      1.8926u    800.0003m  
    3.59000n      1.0632u    799.9993m  
    3.60000n      0.         799.9982m  
    3.61000n   -595.5559n    799.9972m  
    3.62000n     -1.4250u    799.9962m  
    3.63000n     -2.2544u    799.9952m  
    3.64000n     -3.0838u    799.9941m  
    3.65000n     -3.9132u    799.9931m  
    3.66000n     -4.7426u    799.9921m  
    3.67000n     -5.5720u    799.9911m  
    3.68000n     -6.4014u    799.9901m  
    3.69000n     -7.2308u    799.9890m  
    3.70000n     -6.5881u    799.9898m  
    3.71000n     -5.7589u    799.9908m  
    3.72000n     -4.9298u    799.9919m  
    3.73000n     -4.1007u    799.9929m  
    3.74000n     -3.2716u    799.9939m  
    3.75000n     -2.4425u    799.9949m  
    3.76000n     -1.6134u    799.9959m  
    3.77000n   -784.3086n    799.9970m  
    3.78000n      0.         799.9980m  
    3.79000n    873.9036n    799.9990m  
    3.80000n      1.7030u    800.0000m  
    3.81000n      2.5321u    800.0010m  
    3.82000n      3.3612u    800.0020m  
    3.83000n      4.1903u    800.0031m  
    3.84000n      5.0194u    800.0041m  
    3.85000n      5.8485u    800.0051m  
    3.86000n      6.6776u    800.0061m  
    3.87000n      7.5068u    800.0071m  
    3.88000n      8.3359u    800.0082m  
    3.89000n      9.1650u    800.0092m  
    3.90000n      7.9072u    800.0076m  
    3.91000n      6.3852u    800.0058m  
    3.92000n      4.8633u    800.0039m  
    3.93000n      3.3413u    800.0021m  
    3.94000n      1.8193u    800.0002m  
    3.95000n      0.         799.9983m  
    3.96000n     -1.2247u    799.9965m  
    3.97000n     -2.7467u    799.9946m  
    3.98000n     -4.2687u    799.9927m  
    3.99000n     -5.7907u    799.9909m  
    4.00000n     -7.3126u    799.9890m  
y
x

        time    voltage      voltage    
                 outin_10     outin_20  
    0.          799.9991m    953.6762n  
   10.00000p    800.0225m      1.5544u  
   20.00000p    775.3704m     25.4896m  
   30.00000p    588.6816m    217.9080m  
   40.00000p    220.7961m    596.9954m  
   50.00000p    -23.3214m    810.9115m  
   60.00000p     68.5906u    800.0000m  
   70.00000p    -54.5701u    800.0021m  
   80.00000p     31.9352u    800.0021m  
   90.00000p    -11.6590u    799.9962m  
  100.00000p    -36.8954u    799.9930m  
  110.00000p    -16.1132u    799.9968m  
  120.00000p      4.6691u    800.0005m  
  130.00000p     25.4513u    800.0043m  
  140.00000p     38.2150u    800.0065m  
  150.00000p     27.3378u    800.0043m  
  160.00000p     16.4605u    800.0020m  
  170.00000p      5.5833u    799.9997m  
  180.00000p     -5.2939u    799.9975m  
  190.00000p    -16.1711u    799.9952m  
  200.00000p    -27.0484u    799.9930m  
  210.00000p    -36.7240u    799.9910m  
  220.00000p    -31.8503u    799.9921m  
  230.00000p    -26.9766u    799.9931m  
  240.00000p    -22.1030u    799.9942m  
  250.00000p    -17.2293u    799.9953m  
  260.00000p    -12.3556u    799.9964m  
  270.00000p     -7.4819u    799.9975m  
  280.00000p     -2.6083u    799.9986m  
  290.00000p      2.2654u    799.9996m  
  300.00000p      7.1391u    800.0007m  
  310.00000p     12.0128u    800.0018m  
  320.00000p     16.8865u    800.0029m  
  330.00000p     21.7601u    800.0040m  
  340.00000p     26.6338u    800.0051m  
  350.00000p     31.5075u    800.0061m  
  360.00000p     36.3812u    800.0072m  
  370.00000p     35.7515u    800.0071m  
  380.00000p     32.0685u    800.0062m  
  390.00000p     28.3855u    800.0054m  
  400.00000p     24.7025u    800.0045m  
  410.00000p     21.0194u    800.0037m  
  420.00000p     17.3364u    800.0028m  
  430.00000p     13.6534u    800.0020m  
  440.00000p      9.9704u    800.0011m  
  450.00000p      6.2873u    800.0003m  
  460.00000p      2.6043u    799.9994m  
  470.00000p     -1.0787u    799.9986m  
  480.00000p     -4.7617u    799.9977m  
  490.00000p     -8.4448u    799.9969m  
  500.00000p    -12.1278u    799.9960m  
  510.00000p    -15.8108u    799.9952m  
  520.00000p    -19.4938u    799.9943m  
  530.00000p    -23.1769u    799.9935m  
  540.00000p    -26.8599u    799.9926m  
  550.00000p    -30.5429u    799.9918m  
  560.00000p    -34.2259u    799.9909m  
  570.00000p    -33.2142u    799.9912m  
  580.00000p    -29.5976u    799.9920m  
  590.00000p    -25.9810u    799.9929m  
  600.00000p    -22.3644u    799.9938m  
  610.00000p    -18.7478u    799.9946m  
  620.00000p    -15.1313u    799.9955m  
  630.00000p    -11.5147u    799.9963m  
  640.00000p     -7.8981u    799.9972m  
  650.00000p     -4.2815u    799.9981m  
  660.00000p   -664.9390n    799.9989m  
  670.00000p      2.9516u    799.9998m  
  680.00000p      6.5682u    800.0006m  
  690.00000p     10.1848u    800.0015m  
  700.00000p     13.8014u    800.0024m  
  710.00000p     17.4180u    800.0032m  
  720.00000p     21.0345u    800.0041m  
  730.00000p     24.6511u    800.0049m  
  740.00000p     28.2677u    800.0058m  
  750.00000p     31.8843u    800.0067m  
  760.00000p     35.5009u    800.0075m  
  770.00000p     34.5075u    800.0073m  
  780.00000p     30.9563u    800.0064m  
  790.00000p     27.4051u    800.0055m  
  800.00000p     23.8539u    800.0047m  
  810.00000p     20.3027u    800.0038m  
  820.00000p     16.7515u    800.0029m  
  830.00000p     13.2003u    800.0020m  
  840.00000p      9.6492u    800.0012m  
  850.00000p      6.0980u    800.0003m  
  860.00000p      2.5468u    799.9994m  
  870.00000p     -1.0044u    799.9986m  
  880.00000p     -4.5556u    799.9977m  
  890.00000p     -8.1068u    799.9968m  
  900.00000p    -11.6580u    799.9959m  
  910.00000p    -15.2091u    799.9951m  
  920.00000p    -18.7603u    799.9942m  
  930.00000p    -22.3115u    799.9933m  
  940.00000p    -25.8627u    799.9924m  
  950.00000p    -29.4139u    799.9916m  
  960.00000p    -32.9651u    799.9907m  
  970.00000p    -29.1043u    799.9917m  
  980.00000p    -21.1310u    799.9938m  
  990.00000p    -13.1578u    799.9958m  
    1.00000n     -5.1846u    799.9979m  
    1.01000n      2.7886u    800.0000m  
    1.02000n     10.7618u    800.0020m  
    1.03000n     18.7350u    800.0041m  
    1.04000n     26.7083u    800.0061m  
    1.05000n     34.6815u    800.0082m  
    1.06000n     -9.7905u    799.9904m  
    1.07000n   -480.7033u    799.9903m  
    1.08000n     -2.0597m    800.4027m  
    1.09000n    764.7826m    -15.8057m  
    1.10000n    800.6371m      1.5054m  
    1.11000n    800.0060m     52.8590u  
    1.12000n    799.9877m    -56.1591u  
    1.13000n    799.9983m     -3.5390u  
    1.14000n    800.0089m     49.0812u  
    1.15000n    800.0077m     44.1227u  
    1.16000n    800.0025m     19.9531u  
    1.17000n    799.9973m     -4.2165u  
    1.18000n    799.9922m    -28.3861u  
    1.19000n    799.9870m    -52.5556u  
    1.20000n    799.9870m    -52.7481u  
    1.21000n    799.9892m    -42.5962u  
    1.22000n    799.9914m    -32.4442u  
    1.23000n    799.9937m    -22.2922u  
    1.24000n    799.9959m    -12.1403u  
    1.25000n    799.9981m     -1.9883u  
    1.26000n    800.0003m      8.1637u  
    1.27000n    800.0026m     18.3156u  
    1.28000n    800.0048m     28.4676u  
    1.29000n    800.0070m     38.6196u  
    1.30000n    800.0093m     48.7715u  
    1.31000n    800.0115m     58.9235u  
    1.32000n    800.0111m     57.0498u  
    1.33000n    800.0097m     50.9972u  
    1.34000n    800.0084m     44.9446u  
    1.35000n    800.0070m     38.8920u  
    1.36000n    800.0057m     32.8395u  
    1.37000n    800.0043m     26.7869u  
    1.38000n    800.0030m     20.7343u  
    1.39000n    800.0017m     14.6817u  
    1.40000n    800.0003m      8.6291u  
    1.41000n    799.9990m      2.5765u  
    1.42000n    799.9976m     -3.4761u  
    1.43000n    799.9963m     -9.5287u  
    1.44000n    799.9949m    -15.5813u  
    1.45000n    799.9936m    -21.6339u  
    1.46000n    799.9923m    -27.6865u  
    1.47000n    799.9909m    -33.7391u  
    1.48000n    799.9896m    -39.7917u  
    1.49000n    799.9882m    -45.8443u  
    1.50000n    799.9869m    -51.8969u  
    1.51000n    799.9855m    -57.9495u  
    1.52000n    799.9862m    -55.0273u  
    1.53000n    799.9875m    -48.9863u  
    1.54000n    799.9889m    -42.9454u  
    1.55000n    799.9902m    -36.9044u  
    1.56000n    799.9916m    -30.8634u  
    1.57000n    799.9930m    -24.8225u  
    1.58000n    799.9943m    -18.7815u  
    1.59000n    799.9957m    -12.7406u  
    1.60000n    799.9970m     -6.6996u  
    1.61000n    799.9984m   -658.6360n  
    1.62000n    799.9997m      5.3823u  
    1.63000n    800.0011m     11.4233u  
    1.64000n    800.0024m     17.4642u  
    1.65000n    800.0038m     23.5052u  
    1.66000n    800.0051m     29.5462u  
    1.67000n    800.0065m     35.5871u  
    1.68000n    800.0078m     41.6281u  
    1.69000n    800.0092m     47.6690u  
    1.70000n    800.0105m     53.7100u  
    1.71000n    800.0119m     59.7510u  
    1.72000n    800.0112m     56.8348u  
    1.73000n    800.0099m     50.8061u  
    1.74000n    800.0085m     44.7773u  
    1.75000n    800.0071m     38.7485u  
    1.76000n    800.0058m     32.7198u  
    1.77000n    800.0044m     26.6910u  
    1.78000n    800.0031m     20.6622u  
    1.79000n    800.0017m     14.6335u  
    1.80000n    800.0003m      8.6047u  
    1.81000n    799.9990m      2.5760u  
    1.82000n    799.9976m     -3.4528u  
    1.83000n    799.9963m     -9.4816u  
    1.84000n    799.9949m    -15.5103u  
    1.85000n    799.9935m    -21.5391u  
    1.86000n    799.9922m    -27.5679u  
    1.87000n    799.9908m    -33.5966u  
    1.88000n    799.9895m    -39.6254u  
    1.89000n    799.9881m    -45.6541u  
    1.90000n    799.9867m    -51.6829u  
    1.91000n    799.9854m    -57.7117u  
    1.92000n    799.9874m    -49.0652u  
    1.93000n    799.9905m    -35.3189u  
    1.94000n    799.9936m    -21.5727u  
    1.95000n    799.9968m     -7.8265u  
    1.96000n    799.9999m      5.9197u  
    1.97000n    800.0031m     19.6659u  
    1.98000n    800.0062m     33.4122u  
    1.99000n    800.0094m     47.1584u  
    2.00000n    800.0125m     60.9046u  
    2.01000n    800.0066m      7.4585u  
    2.02000n    800.5667m     11.4426u  
    2.03000n    805.2775m   -222.7276u  
    2.04000n     40.3989m    792.2619m  
    2.05000n      1.1727m    802.7840m  
    2.06000n     -4.7386u    799.9747m  
    2.07000n     23.6183u    800.0686m  
    2.08000n     -9.5487u    799.9726m  
    2.09000n    684.4508n    800.0008m  
    2.10000n    507.5581n    799.9981m  
    2.11000n    950.6392n    799.9992m  
    2.12000n    958.2225n    799.9992m  
    2.13000n    949.1005n    799.9992m  
    2.14000n    950.3153n    799.9992m  
    2.15000n    953.1309n    799.9992m  
    2.16000n    955.9464n    799.9992m  
    2.17000n    958.7620n    799.9992m  
    2.18000n    959.4745n    799.9992m  
    2.19000n    958.5227n    799.9992m  
    2.20000n    957.5708n    799.9992m  
    2.21000n    956.6189n    799.9992m  
    2.22000n    955.6670n    799.9992m  
    2.23000n    954.7151n    799.9992m  
    2.24000n    953.7632n    799.9992m  
    2.25000n    952.8113n    799.9992m  
    2.26000n    951.8594n    799.9992m  
    2.27000n    950.9075n    799.9992m  
    2.28000n    949.9557n    799.9992m  
    2.29000n    949.0038n    799.9992m  
    2.30000n    948.0519n    799.9992m  
    2.31000n    948.4481n    799.9992m  
    2.32000n    949.0511n    799.9992m  
    2.33000n    949.6542n    799.9992m  
    2.34000n    950.2572n    799.9992m  
    2.35000n    950.8602n    799.9992m  
    2.36000n    951.4633n    799.9992m  
    2.37000n    952.0663n    799.9992m  
    2.38000n    952.6694n    799.9992m  
    2.39000n    953.2724n    799.9992m  
    2.40000n    953.8754n    799.9992m  
    2.41000n    954.4785n    799.9992m  
    2.42000n    955.0815n    799.9992m  
    2.43000n    955.6846n    799.9992m  
    2.44000n    956.2876n    799.9992m  
    2.45000n    956.8907n    799.9992m  
    2.46000n    957.4937n    799.9992m  
    2.47000n    958.0967n    799.9992m  
    2.48000n    958.6998n    799.9992m  
    2.49000n    959.3028n    799.9992m  
    2.50000n    959.9059n    799.9992m  
    2.51000n    959.4639n    799.9992m  
    2.52000n    958.8617n    799.9992m  
    2.53000n    958.2594n    799.9992m  
    2.54000n    957.6571n    799.9992m  
    2.55000n    957.0548n    799.9992m  
    2.56000n    956.4526n    799.9992m  
    2.57000n    955.8503n    799.9992m  
    2.58000n    955.2480n    799.9992m  
    2.59000n    954.6457n    799.9992m  
    2.60000n    954.0435n    799.9992m  
    2.61000n    953.4412n    799.9992m  
    2.62000n    952.8389n    799.9992m  
    2.63000n    952.2366n    799.9992m  
    2.64000n    951.6344n    799.9992m  
    2.65000n    951.0321n    799.9992m  
    2.66000n    950.4298n    799.9992m  
    2.67000n    949.8275n    799.9992m  
    2.68000n    949.2253n    799.9992m  
    2.69000n    948.6230n    799.9992m  
    2.70000n    948.0207n    799.9992m  
    2.71000n    948.4621n    799.9992m  
    2.72000n    949.0636n    799.9992m  
    2.73000n    949.6651n    799.9992m  
    2.74000n    950.2666n    799.9992m  
    2.75000n    950.8681n    799.9992m  
    2.76000n    951.4696n    799.9992m  
    2.77000n    952.0711n    799.9992m  
    2.78000n    952.6726n    799.9992m  
    2.79000n    953.2741n    799.9992m  
    2.80000n    953.8757n    799.9992m  
    2.81000n    954.4772n    799.9992m  
    2.82000n    955.0787n    799.9992m  
    2.83000n    955.6802n    799.9992m  
    2.84000n    956.2817n    799.9992m  
    2.85000n    956.8832n    799.9992m  
    2.86000n    957.4847n    799.9992m  
    2.87000n    958.0862n    799.9992m  
    2.88000n    958.6877n    799.9992m  
    2.89000n    959.2892n    799.9992m  
    2.90000n    959.8907n    799.9992m  
    2.91000n    959.2702n    799.9992m  
    2.92000n    958.4623n    799.9992m  
    2.93000n    957.6543n    799.9992m  
    2.94000n    956.8463n    799.9992m  
    2.95000n    956.0383n    799.9992m  
    2.96000n    955.2304n    799.9992m  
    2.97000n    954.4224n    799.9992m  
    2.98000n    953.6144n    799.9992m  
    2.99000n    952.8064n    799.9992m  
    3.00000n    951.9985n    799.9992m  
    3.01000n    951.1905n    799.9992m  
    3.02000n    950.3825n    799.9992m  
    3.03000n    949.5745n    799.9992m  
    3.04000n    948.7666n    799.9992m  
    3.05000n    947.9586n    799.9992m  
    3.06000n      3.8725u    799.9935m  
    3.07000n     -2.7967m    799.9356m  
    3.08000n    120.5023m    797.8162m  
    3.09000n    724.8441m     85.7271m  
    3.10000n      3.0241      -2.0517m  
    3.11000n      1.4306    -100.8633m  
    3.12000n    803.4517m   -991.5230u  
    3.13000n    799.9893m    -10.5449u  
    3.14000n    800.0081m     13.3042u  
    3.15000n    799.9979m     -1.0964u  
    3.16000n    799.9890m    -13.7586u  
    3.17000n    799.9937m     -6.9560u  
    3.18000n    799.9984m      0.       
    3.19000n    800.0030m      6.6491u  
    3.20000n    800.0077m     13.4517u  
    3.21000n    800.0082m     14.1610u  
    3.22000n    800.0061m     11.1422u  
    3.23000n    800.0041m      8.1234u  
    3.24000n    800.0020m      5.1046u  
    3.25000n    800.0000m      2.0858u  
    3.26000n    799.9979m   -933.0169n  
    3.27000n    799.9959m     -3.9518u  
    3.28000n    799.9938m     -6.9706u  
    3.29000n    799.9918m     -9.9894u  
    3.30000n    799.9897m    -13.0082u  
    3.31000n    799.9895m    -13.3502u  
    3.32000n    799.9906m    -11.7287u  
    3.33000n    799.9917m    -10.1073u  
    3.34000n    799.9928m     -8.4858u  
    3.35000n    799.9939m     -6.8643u  
    3.36000n    799.9950m     -5.2429u  
    3.37000n    799.9961m     -3.6214u  
    3.38000n    799.9972m     -1.9999u  
    3.39000n    799.9983m      0.       
    3.40000n    799.9994m      1.2430u  
    3.41000n    800.0005m      2.8645u  
    3.42000n    800.0016m      4.4859u  
    3.43000n    800.0027m      6.1074u  
    3.44000n    800.0038m      7.7289u  
    3.45000n    800.0048m      9.3503u  
    3.46000n    800.0059m     10.9718u  
    3.47000n    800.0070m     12.5933u  
    3.48000n    800.0081m     14.2147u  
    3.49000n    800.0092m     15.8362u  
    3.50000n    800.0085m     14.6740u  
    3.51000n    800.0074m     13.1593u  
    3.52000n    800.0064m     11.6447u  
    3.53000n    800.0054m     10.1300u  
    3.54000n    800.0044m      8.6154u  
    3.55000n    800.0033m      7.1007u  
    3.56000n    800.0023m      5.5860u  
    3.57000n    800.0013m      4.0714u  
    3.58000n    800.0003m      2.5567u  
    3.59000n    799.9993m      1.0420u  
    3.60000n    799.9982m      0.       
    3.61000n    799.9972m     -1.9873u  
    3.62000n    799.9962m     -3.5019u  
    3.63000n    799.9952m     -5.0166u  
    3.64000n    799.9941m     -6.5313u  
    3.65000n    799.9931m     -8.0459u  
    3.66000n    799.9921m     -9.5606u  
    3.67000n    799.9911m    -11.0753u  
    3.68000n    799.9901m    -12.5899u  
    3.69000n    799.9890m    -14.1046u  
    3.70000n    799.9898m    -12.9309u  
    3.71000n    799.9908m    -11.4167u  
    3.72000n    799.9919m     -9.9026u  
    3.73000n    799.9929m     -8.3885u  
    3.74000n    799.9939m     -6.8743u  
    3.75000n    799.9949m     -5.3602u  
    3.76000n    799.9959m     -3.8461u  
    3.77000n    799.9970m     -2.3319u  
    3.78000n    799.9980m   -817.7949n  
    3.79000n    799.9990m    696.3403n  
    3.80000n    800.0000m      2.2105u  
    3.81000n    800.0010m      3.7246u  
    3.82000n    800.0020m      5.2387u  
    3.83000n    800.0031m      6.7529u  
    3.84000n    800.0041m      8.2670u  
    3.85000n    800.0051m      9.7812u  
    3.86000n    800.0061m     11.2953u  
    3.87000n    800.0071m     12.8094u  
    3.88000n    800.0082m     14.3236u  
    3.89000n    800.0092m     15.8377u  
    3.90000n    800.0076m     13.5403u  
    3.91000n    800.0058m     10.7604u  
    3.92000n    800.0039m      7.9804u  
    3.93000n    800.0021m      5.2004u  
    3.94000n    800.0002m      2.4204u  
    3.95000n    799.9983m      0.       
    3.96000n    799.9965m     -3.1395u  
    3.97000n    799.9946m     -5.9195u  
    3.98000n    799.9927m     -8.6995u  
    3.99000n    799.9909m    -11.4795u  
    4.00000n    799.9890m    -14.2595u  
y
x

        time    voltage      voltage    
                 outin_01     outin_11  
    0.          953.6673n    799.9991m  
   10.00000p     -2.4688m    800.0225m  
   20.00000p     25.2351m    775.3704m  
   30.00000p    212.8218m    588.6816m  
   40.00000p    579.1966m    220.7961m  
   50.00000p    816.2370m    -23.3214m  
   60.00000p    799.8351m     68.5906u  
   70.00000p    800.1168m    -54.5701u  
   80.00000p    799.9221m     31.9352u  
   90.00000p    800.0346m    -11.6590u  
  100.00000p    800.0991m    -36.8954u  
  110.00000p    800.0434m    -16.1132u  
  120.00000p    799.9876m      4.6691u  
  130.00000p    799.9318m     25.4513u  
  140.00000p    799.8977m     38.2150u  
  150.00000p    799.9276m     27.3378u  
  160.00000p    799.9574m     16.4605u  
  170.00000p    799.9873m      5.5833u  
  180.00000p    800.0171m     -5.2939u  
  190.00000p    800.0470m    -16.1711u  
  200.00000p    800.0768m    -27.0484u  
  210.00000p    800.1033m    -36.7240u  
  220.00000p    800.0898m    -31.8503u  
  230.00000p    800.0763m    -26.9766u  
  240.00000p    800.0627m    -22.1030u  
  250.00000p    800.0492m    -17.2293u  
  260.00000p    800.0357m    -12.3556u  
  270.00000p    800.0222m     -7.4819u  
  280.00000p    800.0086m     -2.6083u  
  290.00000p    799.9951m      2.2654u  
  300.00000p    799.9816m      7.1391u  
  310.00000p    799.9680m     12.0128u  
  320.00000p    799.9545m     16.8865u  
  330.00000p    799.9410m     21.7601u  
  340.00000p    799.9275m     26.6338u  
  350.00000p    799.9139m     31.5075u  
  360.00000p    799.9004m     36.3812u  
  370.00000p    799.9022m     35.7515u  
  380.00000p    799.9125m     32.0685u  
  390.00000p    799.9228m     28.3855u  
  400.00000p    799.9331m     24.7025u  
  410.00000p    799.9434m     21.0194u  
  420.00000p    799.9536m     17.3364u  
  430.00000p    799.9639m     13.6534u  
  440.00000p    799.9742m      9.9704u  
  450.00000p    799.9845m      6.2873u  
  460.00000p    799.9948m      2.6043u  
  470.00000p    800.0051m     -1.0787u  
  480.00000p    800.0154m     -4.7617u  
  490.00000p    800.0257m     -8.4448u  
  500.00000p    800.0360m    -12.1278u  
  510.00000p    800.0463m    -15.8108u  
  520.00000p    800.0566m    -19.4938u  
  530.00000p    800.0669m    -23.1769u  
  540.00000p    800.0772m    -26.8599u  
  550.00000p    800.0875m    -30.5429u  
  560.00000p    800.0977m    -34.2259u  
  570.00000p    800.0949m    -33.2142u  
  580.00000p    800.0847m    -29.5976u  
  590.00000p    800.0745m    -25.9810u  
  600.00000p    800.0644m    -22.3644u  
  610.00000p    800.0542m    -18.7478u  
  620.00000p    800.0440m    -15.1313u  
  630.00000p    800.0339m    -11.5147u  
  640.00000p    800.0237m     -7.8981u  
  650.00000p    800.0136m     -4.2815u  
  660.00000p    800.0034m   -664.9390n  
  670.00000p    799.9932m      2.9516u  
  680.00000p    799.9831m      6.5682u  
  690.00000p    799.9729m     10.1848u  
  700.00000p    799.9627m     13.8014u  
  710.00000p    799.9526m     17.4180u  
  720.00000p    799.9424m     21.0345u  
  730.00000p    799.9322m     24.6511u  
  740.00000p    799.9221m     28.2677u  
  750.00000p    799.9119m     31.8843u  
  760.00000p    799.9017m     35.5009u  
  770.00000p    799.9046m     34.5075u  
  780.00000p    799.9146m     30.9563u  
  790.00000p    799.9246m     27.4051u  
  800.00000p    799.9347m     23.8539u  
  810.00000p    799.9447m     20.3027u  
  820.00000p    799.9548m     16.7515u  
  830.00000p    799.9648m     13.2003u  
  840.00000p    799.9748m      9.6492u  
  850.00000p    799.9849m      6.0980u  
  860.00000p    799.9949m      2.5468u  
  870.00000p    800.0050m     -1.0044u  
  880.00000p    800.0150m     -4.5556u  
  890.00000p    800.0250m     -8.1068u  
  900.00000p    800.0351m    -11.6580u  
  910.00000p    800.0451m    -15.2091u  
  920.00000p    800.0552m    -18.7603u  
  930.00000p    800.0652m    -22.3115u  
  940.00000p    800.0753m    -25.8627u  
  950.00000p    800.0853m    -29.4139u  
  960.00000p    800.0953m    -32.9651u  
  970.00000p    800.0843m    -29.1043u  
  980.00000p    800.0615m    -21.1310u  
  990.00000p    800.0387m    -13.1578u  
    1.00000n    800.0160m     -5.1846u  
    1.01000n    799.9932m      2.7886u  
    1.02000n    799.9704m     10.7618u  
    1.03000n    799.9477m     18.7350u  
    1.04000n    799.9249m     26.7083u  
    1.05000n    799.9022m     34.6815u  
    1.06000n    800.0032m   -592.3585n  
    1.07000n    799.9971m      1.6349u  
    1.08000n    799.9991m    949.8278n  
    1.09000n    799.9991m    955.3856n  
    1.10000n    799.9991m    953.6535n  
    1.11000n    799.9991m    953.6829n  
    1.12000n    799.9991m    953.6846n  
    1.13000n    799.9991m    953.6838n  
    1.14000n    799.9991m    953.6830n  
    1.15000n    799.9991m    953.6831n  
    1.16000n    799.9991m    953.6834n  
    1.17000n    799.9991m    953.6838n  
    1.18000n    799.9991m    953.6842n  
    1.19000n    799.9991m    953.6845n  
    1.20000n    799.9991m    953.6845n  
    1.21000n    799.9991m    953.6844n  
    1.22000n    799.9991m    953.6842n  
    1.23000n    799.9991m    953.6841n  
    1.24000n    799.9991m    953.6839n  
    1.25000n    799.9991m    953.6838n  
    1.26000n    799.9991m    953.6836n  
    1.27000n    799.9991m    953.6834n  
    1.28000n    799.9991m    953.6833n  
    1.29000n    799.9991m    953.6831n  
    1.30000n    799.9991m    953.6830n  
    1.31000n    799.9991m    953.6828n  
    1.32000n    799.9991m    953.6829n  
    1.33000n    799.9991m    953.6829n  
    1.34000n    799.9991m    953.6830n  
    1.35000n    799.9991m    953.6831n  
    1.36000n    799.9991m    953.6832n  
    1.37000n    799.9991m    953.6833n  
    1.38000n    799.9991m    953.6834n  
    1.39000n    799.9991m    953.6835n  
    1.40000n    799.9991m    953.6836n  
    1.41000n    799.9991m    953.6837n  
    1.42000n    799.9991m    953.6838n  
    1.43000n    799.9991m    953.6839n  
    1.44000n    799.9991m    953.6840n  
    1.45000n    799.9991m    953.6841n  
    1.46000n    799.9991m    953.6841n  
    1.47000n    799.9991m    953.6842n  
    1.48000n    799.9991m    953.6843n  
    1.49000n    799.9991m    953.6844n  
    1.50000n    799.9991m    953.6845n  
    1.51000n    799.9991m    953.6846n  
    1.52000n    799.9991m    953.6846n  
    1.53000n    799.9991m    953.6845n  
    1.54000n    799.9991m    953.6844n  
    1.55000n    799.9991m    953.6843n  
    1.56000n    799.9991m    953.6842n  
    1.57000n    799.9991m    953.6841n  
    1.58000n    799.9991m    953.6840n  
    1.59000n    799.9991m    953.6839n  
    1.60000n    799.9991m    953.6838n  
    1.61000n    799.9991m    953.6837n  
    1.62000n    799.9991m    953.6836n  
    1.63000n    799.9991m    953.6836n  
    1.64000n    799.9991m    953.6835n  
    1.65000n    799.9991m    953.6834n  
    1.66000n    799.9991m    953.6833n  
    1.67000n    799.9991m    953.6832n  
    1.68000n    799.9991m    953.6831n  
    1.69000n    799.9991m    953.6830n  
    1.70000n    799.9991m    953.6829n  
    1.71000n    799.9991m    953.6828n  
    1.72000n    799.9991m    953.6829n  
    1.73000n    799.9991m    953.6829n  
    1.74000n    799.9991m    953.6830n  
    1.75000n    799.9991m    953.6831n  
    1.76000n    799.9991m    953.6832n  
    1.77000n    799.9991m    953.6833n  
    1.78000n    799.9991m    953.6834n  
    1.79000n    799.9991m    953.6835n  
    1.80000n    799.9991m    953.6836n  
    1.81000n    799.9991m    953.6837n  
    1.82000n    799.9991m    953.6838n  
    1.83000n    799.9991m    953.6839n  
    1.84000n    799.9991m    953.6840n  
    1.85000n    799.9991m    953.6841n  
    1.86000n    799.9991m    953.6841n  
    1.87000n    799.9991m    953.6842n  
    1.88000n    799.9991m    953.6843n  
    1.89000n    799.9991m    953.6844n  
    1.90000n    799.9991m    953.6845n  
    1.91000n    799.9991m    953.6846n  
    1.92000n    799.9991m    953.6845n  
    1.93000n    799.9991m    953.6843n  
    1.94000n    799.9991m    953.6841n  
    1.95000n    799.9991m    953.6838n  
    1.96000n    799.9991m    953.6836n  
    1.97000n    799.9991m    953.6834n  
    1.98000n    799.9991m    953.6832n  
    1.99000n    799.9991m    953.6830n  
    2.00000n    799.9991m    953.6828n  
    2.01000n    799.9991m    953.6900n  
    2.02000n    799.9991m    953.6897n  
    2.03000n    799.9991m    953.6898n  
    2.04000n    799.9991m    953.6898n  
    2.05000n    799.9991m    953.6898n  
    2.06000n    803.2160m     11.5246u  
    2.07000n    709.6251m     55.7380m  
    2.08000n    404.6226m    237.2938m  
    2.09000n     16.9034m    772.0867m  
    2.10000n      2.5428m    799.8938m  
    2.11000n      2.6603u    800.0149m  
    2.12000n     -1.8761u    799.9832m  
    2.13000n      5.1464u    800.0141m  
    2.14000n      4.1058u    800.0107m  
    2.15000n      1.8166u    800.0020m  
    2.16000n      0.         799.9934m  
    2.17000n     -2.7619u    799.9847m  
    2.18000n     -3.3358u    799.9825m  
    2.19000n     -2.5521u    799.9853m  
    2.20000n     -1.7684u    799.9882m  
    2.21000n   -984.6510n    799.9910m  
    2.22000n      0.         799.9939m  
    2.23000n    582.7697n    799.9967m  
    2.24000n      1.3665u    799.9995m  
    2.25000n      2.1502u    800.0024m  
    2.26000n      2.9339u    800.0052m  
    2.27000n      3.7176u    800.0081m  
    2.28000n      4.5013u    800.0109m  
    2.29000n      5.2850u    800.0138m  
    2.30000n      6.0687u    800.0166m  
    2.31000n      5.7406u    800.0154m  
    2.32000n      5.2418u    800.0137m  
    2.33000n      4.7430u    800.0119m  
    2.34000n      4.2442u    800.0101m  
    2.35000n      3.7454u    800.0083m  
    2.36000n      3.2466u    800.0065m  
    2.37000n      2.7478u    800.0048m  
    2.38000n      2.2490u    800.0030m  
    2.39000n      1.7502u    800.0012m  
    2.40000n      1.2514u    799.9994m  
    2.41000n    752.6208n    799.9976m  
    2.42000n      0.         799.9959m  
    2.43000n      0.         799.9941m  
    2.44000n   -743.7601n    799.9923m  
    2.45000n     -1.2426u    799.9905m  
    2.46000n     -1.7413u    799.9887m  
    2.47000n     -2.2401u    799.9870m  
    2.48000n     -2.7389u    799.9852m  
    2.49000n     -3.2377u    799.9834m  
    2.50000n     -3.7365u    799.9816m  
    2.51000n     -3.3695u    799.9829m  
    2.52000n     -2.8697u    799.9847m  
    2.53000n     -2.3698u    799.9864m  
    2.54000n     -1.8700u    799.9882m  
    2.55000n     -1.3701u    799.9900m  
    2.56000n   -870.2602n    799.9917m  
    2.57000n      0.         799.9935m  
    2.58000n      0.         799.9952m  
    2.59000n    629.2945n    799.9970m  
    2.60000n      1.1291u    799.9988m  
    2.61000n      1.6290u    800.0005m  
    2.62000n      2.1288u    800.0023m  
    2.63000n      2.6287u    800.0041m  
    2.64000n      3.1286u    800.0058m  
    2.65000n      3.6284u    800.0076m  
    2.66000n      4.1283u    800.0093m  
    2.67000n      4.6281u    800.0111m  
    2.68000n      5.1280u    800.0129m  
    2.69000n      5.6278u    800.0146m  
    2.70000n      6.1277u    800.0164m  
    2.71000n      5.7599u    800.0151m  
    2.72000n      5.2591u    800.0134m  
    2.73000n      4.7583u    800.0116m  
    2.74000n      4.2574u    800.0099m  
    2.75000n      3.7566u    800.0081m  
    2.76000n      3.2557u    800.0064m  
    2.77000n      2.7549u    800.0046m  
    2.78000n      2.2541u    800.0029m  
    2.79000n      1.7532u    800.0012m  
    2.80000n      1.2524u    799.9994m  
    2.81000n    751.5460n    799.9977m  
    2.82000n      0.         799.9959m  
    2.83000n      0.         799.9942m  
    2.84000n   -750.9728n    799.9924m  
    2.85000n     -1.2518u    799.9907m  
    2.86000n     -1.7527u    799.9890m  
    2.87000n     -2.2535u    799.9872m  
    2.88000n     -2.7543u    799.9855m  
    2.89000n     -3.2552u    799.9837m  
    2.90000n     -3.7560u    799.9820m  
    2.91000n     -3.2373u    799.9838m  
    2.92000n     -2.5621u    799.9861m  
    2.93000n     -1.8869u    799.9884m  
    2.94000n     -1.2117u    799.9907m  
    2.95000n   -536.4867n    799.9930m  
    2.96000n      0.         799.9953m  
    2.97000n    813.9008n    799.9977m  
    2.98000n      1.4891u    800.0000m  
    2.99000n      2.1643u    800.0023m  
    3.00000n      2.8395u    800.0046m  
    3.01000n      3.5147u    800.0069m  
    3.02000n      4.1899u    800.0092m  
    3.03000n      4.8651u    800.0116m  
    3.04000n      5.5403u    800.0139m  
    3.05000n      6.2155u    800.0162m  
    3.06000n    872.6520n    799.9989m  
    3.07000n    973.1391n    799.9992m  
    3.08000n      1.0006u    799.9995m  
    3.09000n      1.0705u    799.9994m  
    3.10000n    953.4539n    799.9991m  
    3.11000n    953.6674n    799.9991m  
[...]
    3.65000n    953.6673n    799.9991m  
    3.66000n    953.6673n    799.9991m  
    3.67000n    953.6673n    799.9991m  
    3.68000n    953.6673n    799.9991m  
    3.69000n    953.6673n    799.9991m  
    3.70000n    953.6673n    799.9991m  
    3.71000n    953.6673n    799.9991m  
    3.72000n    953.6673n    799.9991m  
    3.73000n    953.6673n    799.9991m  
    3.74000n    953.6673n    799.9991m  
    3.75000n    953.6673n    799.9991m  
    3.76000n    953.6673n    799.9991m  
    3.77000n    953.6673n    799.9991m  
    3.78000n    953.6673n    799.9991m  
    3.79000n    953.6673n    799.9991m  
    3.80000n    953.6673n    799.9991m  
    3.81000n    953.6673n    799.9991m  
    3.82000n    953.6673n    799.9991m  
    3.83000n    953.6673n    799.9991m  
    3.84000n    953.6673n    799.9991m  
    3.85000n    953.6673n    799.9991m  
    3.86000n    953.6673n    799.9991m  
    3.87000n    953.6673n    799.9991m  
    3.88000n    953.6673n    799.9991m  
    3.89000n    953.6673n    799.9991m  
    3.90000n    953.6673n    799.9991m  
    3.91000n    953.6673n    799.9991m  
    3.92000n    953.6673n    799.9991m  
    3.93000n    953.6673n    799.9991m  
    3.94000n    953.6673n    799.9991m  
    3.95000n    953.6673n    799.9991m  
    3.96000n    953.6673n    799.9991m  
    3.97000n    953.6673n    799.9991m  
    3.98000n    953.6673n    799.9991m  
    3.99000n    953.6673n    799.9991m  
    4.00000n    953.6673n    799.9991m  
y
x

        time    voltage      voltage    
                 outin_11     outin_21  
    0.          799.9991m    953.6762n  
   10.00000p    800.0225m      1.5544u  
   20.00000p    775.3704m     25.4896m  
   30.00000p    588.6816m    217.9080m  
   40.00000p    220.7961m    596.9954m  
   50.00000p    -23.3214m    810.9115m  
   60.00000p     68.5906u    800.0000m  
   70.00000p    -54.5701u    800.0021m  
   80.00000p     31.9352u    800.0021m  
   90.00000p    -11.6590u    799.9962m  
  100.00000p    -36.8954u    799.9930m  
  110.00000p    -16.1132u    799.9968m  
  120.00000p      4.6691u    800.0005m  
  130.00000p     25.4513u    800.0043m  
  140.00000p     38.2150u    800.0065m  
  150.00000p     27.3378u    800.0043m  
  160.00000p     16.4605u    800.0020m  
  170.00000p      5.5833u    799.9997m  
  180.00000p     -5.2939u    799.9975m  
  190.00000p    -16.1711u    799.9952m  
  200.00000p    -27.0484u    799.9930m  
  210.00000p    -36.7240u    799.9910m  
  220.00000p    -31.8503u    799.9921m  
  230.00000p    -26.9766u    799.9931m  
  240.00000p    -22.1030u    799.9942m  
  250.00000p    -17.2293u    799.9953m  
  260.00000p    -12.3556u    799.9964m  
  270.00000p     -7.4819u    799.9975m  
  280.00000p     -2.6083u    799.9986m  
  290.00000p      2.2654u    799.9996m  
  300.00000p      7.1391u    800.0007m  
  310.00000p     12.0128u    800.0018m  
  320.00000p     16.8865u    800.0029m  
  330.00000p     21.7601u    800.0040m  
  340.00000p     26.6338u    800.0051m  
  350.00000p     31.5075u    800.0061m  
  360.00000p     36.3812u    800.0072m  
  370.00000p     35.7515u    800.0071m  
  380.00000p     32.0685u    800.0062m  
  390.00000p     28.3855u    800.0054m  
  400.00000p     24.7025u    800.0045m  
  410.00000p     21.0194u    800.0037m  
  420.00000p     17.3364u    800.0028m  
  430.00000p     13.6534u    800.0020m  
  440.00000p      9.9704u    800.0011m  
  450.00000p      6.2873u    800.0003m  
  460.00000p      2.6043u    799.9994m  
  470.00000p     -1.0787u    799.9986m  
  480.00000p     -4.7617u    799.9977m  
  490.00000p     -8.4448u    799.9969m  
  500.00000p    -12.1278u    799.9960m  
  510.00000p    -15.8108u    799.9952m  
  520.00000p    -19.4938u    799.9943m  
  530.00000p    -23.1769u    799.9935m  
  540.00000p    -26.8599u    799.9926m  
  550.00000p    -30.5429u    799.9918m  
  560.00000p    -34.2259u    799.9909m  
  570.00000p    -33.2142u    799.9912m  
  580.00000p    -29.5976u    799.9920m  
  590.00000p    -25.9810u    799.9929m  
  600.00000p    -22.3644u    799.9938m  
  610.00000p    -18.7478u    799.9946m  
  620.00000p    -15.1313u    799.9955m  
  630.00000p    -11.5147u    799.9963m  
  640.00000p     -7.8981u    799.9972m  
  650.00000p     -4.2815u    799.9981m  
  660.00000p   -664.9390n    799.9989m  
  670.00000p      2.9516u    799.9998m  
  680.00000p      6.5682u    800.0006m  
  690.00000p     10.1848u    800.0015m  
  700.00000p     13.8014u    800.0024m  
  710.00000p     17.4180u    800.0032m  
  720.00000p     21.0345u    800.0041m  
  730.00000p     24.6511u    800.0049m  
  740.00000p     28.2677u    800.0058m  
  750.00000p     31.8843u    800.0067m  
  760.00000p     35.5009u    800.0075m  
  770.00000p     34.5075u    800.0073m  
  780.00000p     30.9563u    800.0064m  
  790.00000p     27.4051u    800.0055m  
  800.00000p     23.8539u    800.0047m  
  810.00000p     20.3027u    800.0038m  
  820.00000p     16.7515u    800.0029m  
  830.00000p     13.2003u    800.0020m  
  840.00000p      9.6492u    800.0012m  
  850.00000p      6.0980u    800.0003m  
  860.00000p      2.5468u    799.9994m  
  870.00000p     -1.0044u    799.9986m  
  880.00000p     -4.5556u    799.9977m  
  890.00000p     -8.1068u    799.9968m  
  900.00000p    -11.6580u    799.9959m  
  910.00000p    -15.2091u    799.9951m  
  920.00000p    -18.7603u    799.9942m  
  930.00000p    -22.3115u    799.9933m  
  940.00000p    -25.8627u    799.9924m  
  950.00000p    -29.4139u    799.9916m  
  960.00000p    -32.9651u    799.9907m  
  970.00000p    -29.1043u    799.9917m  
  980.00000p    -21.1310u    799.9938m  
  990.00000p    -13.1578u    799.9958m  
    1.00000n     -5.1846u    799.9979m  
    1.01000n      2.7886u    800.0000m  
    1.02000n     10.7618u    800.0020m  
    1.03000n     18.7350u    800.0041m  
    1.04000n     26.7083u    800.0061m  
    1.05000n     34.6815u    800.0082m  
    1.06000n   -592.3585n    799.9992m  
    1.07000n      1.6349u    799.9992m  
    1.08000n    949.8278n    799.9992m  
    1.09000n    955.3856n    799.9992m  
    1.10000n    953.6535n    799.9992m  
    1.11000n    953.6829n    799.9992m  
    1.12000n    953.6846n    799.9992m  
    1.13000n    953.6838n    799.9992m  
    1.14000n    953.6830n    799.9992m  
    1.15000n    953.6831n    799.9992m  
    1.16000n    953.6834n    799.9992m  
    1.17000n    953.6838n    799.9992m  
    1.18000n    953.6842n    799.9992m  
    1.19000n    953.6845n    799.9992m  
    1.20000n    953.6845n    799.9992m  
    1.21000n    953.6844n    799.9992m  
    1.22000n    953.6842n    799.9992m  
    1.23000n    953.6841n    799.9992m  
    1.24000n    953.6839n    799.9992m  
    1.25000n    953.6838n    799.9992m  
    1.26000n    953.6836n    799.9992m  
    1.27000n    953.6834n    799.9992m  
    1.28000n    953.6833n    799.9992m  
    1.29000n    953.6831n    799.9992m  
    1.30000n    953.6830n    799.9992m  
    1.31000n    953.6828n    799.9992m  
    1.32000n    953.6829n    799.9992m  
    1.33000n    953.6829n    799.9992m  
    1.34000n    953.6830n    799.9992m  
    1.35000n    953.6831n    799.9992m  
    1.36000n    953.6832n    799.9992m  
    1.37000n    953.6833n    799.9992m  
    1.38000n    953.6834n    799.9992m  
    1.39000n    953.6835n    799.9992m  
    1.40000n    953.6836n    799.9992m  
    1.41000n    953.6837n    799.9992m  
    1.42000n    953.6838n    799.9992m  
    1.43000n    953.6839n    799.9992m  
    1.44000n    953.6840n    799.9992m  
    1.45000n    953.6841n    799.9992m  
    1.46000n    953.6841n    799.9992m  
    1.47000n    953.6842n    799.9992m  
    1.48000n    953.6843n    799.9992m  
    1.49000n    953.6844n    799.9992m  
    1.50000n    953.6845n    799.9992m  
    1.51000n    953.6846n    799.9992m  
    1.52000n    953.6846n    799.9992m  
    1.53000n    953.6845n    799.9992m  
    1.54000n    953.6844n    799.9992m  
    1.55000n    953.6843n    799.9992m  
    1.56000n    953.6842n    799.9992m  
    1.57000n    953.6841n    799.9992m  
    1.58000n    953.6840n    799.9992m  
    1.59000n    953.6839n    799.9992m  
    1.60000n    953.6838n    799.9992m  
    1.61000n    953.6837n    799.9992m  
    1.62000n    953.6836n    799.9992m  
    1.63000n    953.6836n    799.9992m  
    1.64000n    953.6835n    799.9992m  
    1.65000n    953.6834n    799.9992m  
    1.66000n    953.6833n    799.9992m  
    1.67000n    953.6832n    799.9992m  
    1.68000n    953.6831n    799.9992m  
    1.69000n    953.6830n    799.9992m  
    1.70000n    953.6829n    799.9992m  
    1.71000n    953.6828n    799.9992m  
    1.72000n    953.6829n    799.9992m  
    1.73000n    953.6829n    799.9992m  
    1.74000n    953.6830n    799.9992m  
    1.75000n    953.6831n    799.9992m  
    1.76000n    953.6832n    799.9992m  
    1.77000n    953.6833n    799.9992m  
    1.78000n    953.6834n    799.9992m  
    1.79000n    953.6835n    799.9992m  
    1.80000n    953.6836n    799.9992m  
    1.81000n    953.6837n    799.9992m  
    1.82000n    953.6838n    799.9992m  
    1.83000n    953.6839n    799.9992m  
    1.84000n    953.6840n    799.9992m  
    1.85000n    953.6841n    799.9992m  
    1.86000n    953.6841n    799.9992m  
    1.87000n    953.6842n    799.9992m  
    1.88000n    953.6843n    799.9992m  
    1.89000n    953.6844n    799.9992m  
    1.90000n    953.6845n    799.9992m  
    1.91000n    953.6846n    799.9992m  
    1.92000n    953.6845n    799.9992m  
    1.93000n    953.6843n    799.9992m  
    1.94000n    953.6841n    799.9992m  
    1.95000n    953.6838n    799.9992m  
    1.96000n    953.6836n    799.9992m  
    1.97000n    953.6834n    799.9992m  
    1.98000n    953.6832n    799.9992m  
    1.99000n    953.6830n    799.9992m  
    2.00000n    953.6828n    799.9992m  
    2.01000n    953.6900n    799.9992m  
    2.02000n    953.6897n    799.9992m  
    2.03000n    953.6898n    799.9992m  
    2.04000n    953.6898n    799.9992m  
    2.05000n    953.6898n    799.9992m  
    2.06000n     11.5246u    800.0046m  
    2.07000n     55.7380m    801.3445m  
    2.08000n    237.2938m    805.8058m  
    2.09000n    772.0867m      9.2172m  
    2.10000n    799.8938m    -88.9726u  
    2.11000n    800.0149m     -2.8382u  
    2.12000n    799.9832m      4.2598u  
    2.13000n    800.0141m     -1.6227u  
    2.14000n    800.0107m     -1.1215u  
    2.15000n    800.0020m      0.       
    2.16000n    799.9934m      1.8580u  
    2.17000n    799.9847m      3.3477u  
    2.18000n    799.9825m      3.7421u  
    2.19000n    799.9853m      3.2695u  
    2.20000n    799.9882m      2.7969u  
    2.21000n    799.9910m      2.3243u  
    2.22000n    799.9939m      1.8516u  
    2.23000n    799.9967m      1.3790u  
    2.24000n    799.9995m    906.4124n  
    2.25000n    800.0024m      0.       
    2.26000n    800.0052m      0.       
    2.27000n    800.0081m   -511.4261n  
    2.28000n    800.0109m   -984.0389n  
    2.29000n    800.0138m     -1.4567u  
    2.30000n    800.0166m     -1.9293u  
    2.31000n    800.0154m     -1.7396u  
    2.32000n    800.0137m     -1.4482u  
    2.33000n    800.0119m     -1.1569u  
    2.34000n    800.0101m   -865.5620n  
    2.35000n    800.0083m   -574.2299n  
    2.36000n    800.0065m      0.       
    2.37000n    800.0048m      0.       
    2.38000n    800.0030m      0.       
    2.39000n    800.0012m    591.0985n  
    2.40000n    799.9994m    882.4306n  
    2.41000n    799.9976m      1.1738u  
    2.42000n    799.9959m      1.4651u  
    2.43000n    799.9941m      1.7564u  
    2.44000n    799.9923m      2.0478u  
    2.45000n    799.9905m      2.3391u  
    2.46000n    799.9887m      2.6304u  
    2.47000n    799.9870m      2.9218u  
    2.48000n    799.9852m      3.2131u  
    2.49000n    799.9834m      3.5044u  
    2.50000n    799.9816m      3.7958u  
    2.51000n    799.9829m      3.5877u  
    2.52000n    799.9847m      3.3031u  
    2.53000n    799.9864m      3.0184u  
    2.54000n    799.9882m      2.7338u  
    2.55000n    799.9900m      2.4491u  
    2.56000n    799.9917m      2.1645u  
    2.57000n    799.9935m      1.8798u  
    2.58000n    799.9952m      1.5952u  
    2.59000n    799.9970m      1.3105u  
    2.60000n    799.9988m      1.0259u  
    2.61000n    800.0005m    741.2196n  
    2.62000n    800.0023m      0.       
    2.63000n    800.0041m      0.       
    2.64000n    800.0058m      0.       
    2.65000n    800.0076m      0.       
    2.66000n    800.0093m   -682.0321n  
    2.67000n    800.0111m   -966.6824n  
    2.68000n    800.0129m     -1.2513u  
    2.69000n    800.0146m     -1.5360u  
    2.70000n    800.0164m     -1.8206u  
    2.71000n    800.0151m     -1.6174u  
    2.72000n    800.0134m     -1.3392u  
    2.73000n    800.0116m     -1.0611u  
    2.74000n    800.0099m   -782.9997n  
    2.75000n    800.0081m   -504.8751n  
    2.76000n    800.0064m      0.       
    2.77000n    800.0046m      0.       
    2.78000n    800.0029m      0.       
    2.79000n    800.0012m    607.6233n  
    2.80000n    799.9994m    885.7479n  
    2.81000n    799.9977m      1.1639u  
    2.82000n    799.9959m      1.4420u  
    2.83000n    799.9942m      1.7201u  
    2.84000n    799.9924m      1.9982u  
    2.85000n    799.9907m      2.2764u  
    2.86000n    799.9890m      2.5545u  
    2.87000n    799.9872m      2.8326u  
    2.88000n    799.9855m      3.1107u  
    2.89000n    799.9837m      3.3889u  
    2.90000n    799.9820m      3.6670u  
    2.91000n    799.9838m      3.3884u  
    2.92000n    799.9861m      3.0244u  
    2.93000n    799.9884m      2.6604u  
    2.94000n    799.9907m      2.2964u  
    2.95000n    799.9930m      1.9324u  
    2.96000n    799.9953m      1.5684u  
    2.97000n    799.9977m      1.2044u  
    2.98000n    800.0000m    840.3990n  
    2.99000n    800.0023m      0.       
    3.00000n    800.0046m      0.       
    3.01000n    800.0069m      0.       
    3.02000n    800.0092m   -615.6088n  
    3.03000n    800.0116m   -979.6108n  
    3.04000n    800.0139m     -1.3436u  
    3.05000n    800.0162m     -1.7076u  
    3.06000n    799.9989m      1.0519u  
    3.07000n    799.9992m    947.0057n  
    3.08000n    799.9995m    824.0784n  
    3.09000n    799.9994m    867.4919n  
    3.10000n    799.9991m    955.4329n  
    3.11000n    799.9991m    953.6763n  
    3.12000n    799.9991m    953.6762n  
    3.13000n    799.9991m    953.6762n  
    3.14000n    799.9991m    953.6762n  
    3.15000n    799.9991m    953.6762n  
    3.16000n    799.9991m    953.6762n  
    3.17000n    799.9991m    953.6762n  
    3.18000n    799.9991m    953.6762n  
    3.19000n    799.9991m    953.6762n  
    3.20000n    799.9991m    953.6762n  
    3.21000n    799.9991m    953.6762n  
    3.22000n    799.9991m    953.6762n  
    3.23000n    799.9991m    953.6762n  
    3.24000n    799.9991m    953.6762n  
    3.25000n    799.9991m    953.6762n  
    3.26000n    799.9991m    953.6762n  
    3.27000n    799.9991m    953.6762n  
    3.28000n    799.9991m    953.6762n  
    3.29000n    799.9991m    953.6762n  
    3.30000n    799.9991m    953.6762n  
    3.31000n    799.9991m    953.6762n  
    3.32000n    799.9991m    953.6762n  
    3.33000n    799.9991m    953.6762n  
    3.34000n    799.9991m    953.6762n  
    3.35000n    799.9991m    953.6762n  
    3.36000n    799.9991m    953.6762n  
    3.37000n    799.9991m    953.6762n  
    3.38000n    799.9991m    953.6762n  
    3.39000n    799.9991m    953.6762n  
    3.40000n    799.9991m    953.6762n  
    3.41000n    799.9991m    953.6762n  
    3.42000n    799.9991m    953.6762n  
    3.43000n    799.9991m    953.6762n  
    3.44000n    799.9991m    953.6762n  
    3.45000n    799.9991m    953.6762n  
    3.46000n    799.9991m    953.6762n  
    3.47000n    799.9991m    953.6762n  
    3.48000n    799.9991m    953.6762n  
    3.49000n    799.9991m    953.6762n  
    3.50000n    799.9991m    953.6762n  
    3.51000n    799.9991m    953.6762n  
    3.52000n    799.9991m    953.6762n  
    3.53000n    799.9991m    953.6762n  
    3.54000n    799.9991m    953.6762n  
    3.55000n    799.9991m    953.6762n  
    3.56000n    799.9991m    953.6762n  
    3.57000n    799.9991m    953.6762n  
    3.58000n    799.9991m    953.6762n  
    3.59000n    799.9991m    953.6762n  
    3.60000n    799.9991m    953.6762n  
    3.61000n    799.9991m    953.6762n  
    3.62000n    799.9991m    953.6762n  
    3.63000n    799.9991m    953.6762n  
    3.64000n    799.9991m    953.6762n  
    3.65000n    799.9991m    953.6762n  
    3.66000n    799.9991m    953.6762n  
    3.67000n    799.9991m    953.6762n  
    3.68000n    799.9991m    953.6762n  
    3.69000n    799.9991m    953.6762n  
    3.70000n    799.9991m    953.6762n  
    3.71000n    799.9991m    953.6762n  
    3.72000n    799.9991m    953.6762n  
    3.73000n    799.9991m    953.6762n  
    3.74000n    799.9991m    953.6762n  
    3.75000n    799.9991m    953.6762n  
    3.76000n    799.9991m    953.6762n  
    3.77000n    799.9991m    953.6762n  
    3.78000n    799.9991m    953.6762n  
    3.79000n    799.9991m    953.6762n  
    3.80000n    799.9991m    953.6762n  
    3.81000n    799.9991m    953.6762n  
    3.82000n    799.9991m    953.6762n  
    3.83000n    799.9991m    953.6762n  
    3.84000n    799.9991m    953.6762n  
    3.85000n    799.9991m    953.6762n  
    3.86000n    799.9991m    953.6762n  
    3.87000n    799.9991m    953.6762n  
    3.88000n    799.9991m    953.6762n  
    3.89000n    799.9991m    953.6762n  
    3.90000n    799.9991m    953.6762n  
    3.91000n    799.9991m    953.6762n  
    3.92000n    799.9991m    953.6762n  
    3.93000n    799.9991m    953.6762n  
    3.94000n    799.9991m    953.6762n  
    3.95000n    799.9991m    953.6762n  
    3.96000n    799.9991m    953.6762n  
    3.97000n    799.9991m    953.6762n  
    3.98000n    799.9991m    953.6762n  
    3.99000n    799.9991m    953.6762n  
    4.00000n    799.9991m    953.6762n  
y

          ***** job concluded
1****** HSPICE -- F-2011.09-SP2 64-BIT (Feb 27 2012) linux ******               
 ******  
 $this uut was automatically generated by:

  ******  job statistics summary tnom=  25.000 temp=  25.000 *****
  
  
 ******  Machine Information  ******
 CPU:
 model name	: Intel(R) Xeon(R) CPU E5-2650 v4 @ 2.20GHz
 cpu MHz	: 2881.828
  
 OS:
 Linux version 3.10.0-693.17.1.el7.x86_64 (mockbuild@x86-041.build.eng.bos.redha
 t.com) (gcc version 4.8.5 20150623 (Red Hat 4.8.5-16) (GCC) ) #1 SMP Sun Jan 14
  10:36:03 EST 2018


  ******  HSPICE Threads Information  ******

  Command Line Threads Count :     1
  Available CPU Count        :    24
  Actual Threads Count       :     1


  ******  Circuit Statistics  ******
  # nodes       =      46 # elements   =      19
  # resistors   =       0 # capacitors =       0 # inductors   =       0
  # mutual_inds =       0 # vccs       =       0 # vcvs        =       0
  # cccs        =       0 # ccvs       =       0 # volt_srcs   =       3
  # curr_srcs   =       0 # diodes     =       0 # bjts        =       0
  # jfets       =       0 # mosfets    =      16 # U elements  =       0
  # T elements  =       0 # W elements =       0 # B elements  =       0
  # S elements  =       0 # P elements =       0 # va device   =       0
  # vector_srcs =       0


  ******  Runtime Statistics (seconds)  ******

  analysis           time    # points   tot. iter  conv.iter
  op point           0.02           1         113
  transient          0.07         401         970         143 rev=         9
  readin             0.01
  errchk             0.00
  setup              0.00
  output             0.00


           peak memory used        135.46 megabytes
           total cpu time            0.10 seconds
           total elapsed time        0.35 seconds
           job started at     18:27:01 09/12/2020
           job ended   at     18:27:01 09/12/2020


 lic: Release hspice token(s) 
