$DATA1 SOURCE='HSPICE' VERSION='F-2011.09-SP2 64-BIT'
.TITLE '$this uut was automatically generated by:'
 trf_delay_001    tfr_delay_001    trf_delay_002    tfr_delay_002     
 trf_delay_003    tfr_delay_003    trf_delay_004    tfr_delay_004     
 trf_delay_101    tfr_delay_101    trf_delay_102    tfr_delay_102     
 trf_delay_103    tfr_delay_103    trf_delay_104    tfr_delay_104     
 trf_delay_201    tfr_delay_201    trf_delay_202    tfr_delay_202     
 trf_delay_203    tfr_delay_203    trf_delay_204    tfr_delay_204     
 trf_delay_011    tfr_delay_011    trf_delay_012    tfr_delay_012     
 trf_delay_111    tfr_delay_111    trf_delay_112    tfr_delay_112     
 trf_delay_211    tfr_delay_211    trf_delay_212    tfr_delay_212     
 trf_delay_021    tfr_delay_021    trf_delay_121    tfr_delay_121     
 trf_delay_221    tfr_delay_221    inv_avg_power00  peakpower00       
 power_avg        avg_power        temper           alter#            
  3.006e-12        2.402e-12        2.762e-12       -1.037e-09        
 -1.989e-09       -1.998e-09       -1.998e-09       -1.997e-09        
  1.265e-12        2.881e-12        1.043e-09        3.346e-12        
  2.004e-09        1.995e-09        2.003e-09        2.003e-09        
  5.674e-13        1.544e-12        3.614e-13        1.371e-12        
  1.168e-12        1.718e-12       -9.465e-10       -1.994e-09        
  3.006e-12        3.345e-12        2.575e-12        3.515e-12        
  2.396e-12        2.881e-12        2.695e-12        3.428e-12        
  5.674e-13        8.910e-13        1.168e-12        7.060e-13        
  3.006e-12        3.796e-12        1.882e-12        2.881e-12        
  5.674e-13        2.655e-12        2.880e-06        8.462e-04        
  1.291e-05        5.129e+12         25.0000        1                 
