 ****** HSPICE -- F-2011.09-SP2 64-BIT (Feb 27 2012) linux ******               
  Copyright (C) 2011 Synopsys, Inc. All Rights Reserved.                        
  Unpublished-rights reserved under US copyright laws.
  This program is protected by law and is subject to the
  terms and conditions of the license agreement from Synopsys.
  Use of this program is your acceptance to be bound by the
  license agreement. HSPICE is the trademark of Synopsys, Inc.
  Input File: ptm14hp.sp                                                        
  Command line options: ptm14hp.sp
 lic:  
 lic: FLEXlm: v10.8 
 lic: USER:   iliabautista         HOSTNAME: itn2.rc.usf.edu 
 lic: HOSTID:                      PID:      17625 
 lic: Using FLEXlm license file: 
 lic: 27000@license0.rc.usf.edu 
 lic: Checkout 1 hspice 
 lic: License/Maintenance for hspice will expire on 18-jul-2021/2019.06 
 lic: 1(in_use)/50(total) FLOATING license(s) on SERVER license0.rc.usf.edu 
 lic:   
  **warning** (../modelfiles/hp/14nfet.pm:4) Model nfet device geometries will not be checked against the limits set by lmin, lmax, nfinmin and nfinmax. To enable this check, add a period(.) to the model name(i.e. enable model selector).
1****** HSPICE -- F-2011.09-SP2 64-BIT (Feb 27 2012) linux ******               
 ******  
 $this uut was automatically generated by:

  ******  circuit name directory
 circuit number to circuit name directory
   number circuitname                     definition         multiplier
        0 main circuit
        1 xinput_0.                       inverter           1.00 
        2 xinput_1.                       inverter           1.00 
        3 xinput_2.                       inverter           1.00 
        4 xinverter00.                    inverter           1.00 
        5 xinverter10.                    inverter           1.00 
        6 xinverter20.                    inverter           1.00 
        7 xinverter01.                    inverter           1.00 
        8 xinverter11.                    inverter           1.00 
        9 xinverter21.                    inverter           1.00 
       10 xinverter02.                    inverter           1.00 
       11 xinverter12.                    inverter           1.00 
       12 xinverter22.                    inverter           1.00 
       13 xoutput_00.                     inverter           1.00 
       14 xoutput_10.                     inverter           1.00 
       15 xoutput_20.                     inverter           1.00 
       16 xinput_0.xpfet.                 pfet               1.00 
       17 xinput_0.xnfet.                 nfet               1.00 
       18 xinput_1.xpfet.                 pfet               1.00 
       19 xinput_1.xnfet.                 nfet               1.00 
       20 xinput_2.xpfet.                 pfet               1.00 
       21 xinput_2.xnfet.                 nfet               1.00 
       22 xinverter00.xpfet.              pfet               1.00 
       23 xinverter00.xnfet.              nfet               1.00 
       24 xinverter10.xpfet.              pfet               1.00 
       25 xinverter10.xnfet.              nfet               1.00 
       26 xinverter20.xpfet.              pfet               1.00 
       27 xinverter20.xnfet.              nfet               1.00 
       28 xinverter01.xpfet.              pfet               1.00 
       29 xinverter01.xnfet.              nfet               1.00 
       30 xinverter11.xpfet.              pfet               1.00 
       31 xinverter11.xnfet.              nfet               1.00 
       32 xinverter21.xpfet.              pfet               1.00 
       33 xinverter21.xnfet.              nfet               1.00 
       34 xinverter02.xpfet.              pfet               1.00 
       35 xinverter02.xnfet.              nfet               1.00 
       36 xinverter12.xpfet.              pfet               1.00 
       37 xinverter12.xnfet.              nfet               1.00 
       38 xinverter22.xpfet.              pfet               1.00 
       39 xinverter22.xnfet.              nfet               1.00 
       40 xoutput_00.xpfet.               pfet               1.00 
       41 xoutput_00.xnfet.               nfet               1.00 
       42 xoutput_10.xpfet.               pfet               1.00 
       43 xoutput_10.xnfet.               nfet               1.00 
       44 xoutput_20.xpfet.               pfet               1.00 
       45 xoutput_20.xnfet.               nfet               1.00 
1****** HSPICE -- F-2011.09-SP2 64-BIT (Feb 27 2012) linux ******               
 ******  
 $this uut was automatically generated by:

  ******  mos   model parameters tnom=  25.000 temp=  25.000 *****
 Model Name: pfet 
 BSIM-MG BULK Model(Level72)
   VERSION = 105.03  
   DEVTYPE = -1 
   BULKMOD = 1  
   COREMOD = 0 
   GEOMOD = 1 
   RDSMOD = 1 
   IGCMOD = 1 
   IGBMOD = 1 
   GIDLMOD = 0 
   IIMOD = 0 
   NQSMOD = 0 
   SHMOD = 0 
   RGATEMOD = 0 
   RGEOMOD = 1 
   CGEOMOD = 2 
   CAPMOD = 0 
   LINT = 1.5e-09 m
   LL =      0 m^(LLN+1)
   LLN =      1 
   DLC =      0 m
   DLBIN =      0 
   LLC =      0 m^(LLN+1)
   EOT = 7.5e-10 m
   TOXP = 1.3e-09 m
   EOTBOX = 1.4e-07 m
   HFIN = 2.3e-08 m
   FECH =      1 
   DELTAW =      0 m
   FECHCV =      1 
   DELTAWCV =      0 m
   NBODY =  5e+22 m^-3
   NSD =  3e+26 m^-3
   PHIG =  4.752 eV
   EPSROX =    3.9 
   EPSRSUB =   11.9 
   EASUB =   4.05 eV
   NI0SUB = 1.1e+16 m^-3
   BG0SUB =   1.12 eV
   NC0SUB = 2.86e+25 m^-3
   NGATE =      0 m^-3
   CIT = 1.3e-05 F/m^2
   CDSC = 0.0226 F/m^2
   CDSCD =  0.007 F/m^2
   CDSCDR =  0.007 
   DVT0 =   0.01 
   DVT1 =   0.69 
   PHIN =   0.05 V
   ETA0 =  0.767 
   ETA0R =  0.767 
   DSUB =    0.9 
   K1RSCE =      0 V^1/2
   LPE0 =  5e-09 m
   DVTSHIFT =      0 
   QMFACTOR =      0 
   QMTCENIV =      0 
   QMTCENCV =      0 
   AQMTCEN =      0 
   BQMTCEN = 1.2e-08 
   ETAQM =   0.54 
   QM0 = 0.001143 
   PQM =   0.66 
   QM0ACC =  0.001 
   PQMACC =   0.66 
   VSAT = 1.05e+05 
   AVSAT =      0 
   BVSAT =  1e-07 
   VSAT1 = 1.05e+05 
   AVSAT1 =      0 
   BVSAT1 =  1e-07 
   DELTAVSAT =      1 
   KSATIV =    0.8 
   MEXP =      3 
   AMEXP =      0 
   BMEXP =      1 
   PTWG =      0 
   APTWG =      0 
   BPTWG =  1e-07 
   AT = -0.00156 
   TMEXP =      0 
   PTWGT =  0.004 
   U0 = 0.0336 
   ETAMOB =      2 
   UP =      0 
   LPA =      1 
   UA =    0.3 
   AUA =      0 
   BUA =  1e-07 
   EU =    1.8 
   AEU =      0 
   BEU =  1e-07 
   UD =      0 
   AUD =      0 
   BUD =  5e-08 
   UCS =      0 
   UTE =      0 
   UTL = -0.0015 
   UA1 = 0.001032 
   UD1 =      0 
   UCSTE = -0.00478 
   RDSWMIN =      0 
   RDSW =    100 
   ARDSW =      0 
   BRDSW =  1e-07 
   RSWMIN =      0 
   RSW =      0 
   ARSW =      0 
   BRSW =  1e-07 
   RDWMIN =      0 
   RDW =      0 
   ARDW =      0 
   BRDW =  1e-07 
   PRWG =      0 
   WR =      1 
   PRT =  0.001 
   PDIBL1 =    1.3 
   PDIBL2 = 0.0002 
   DROUT =   1.06 
   PVAG =      1 
   PCLM =    0.2 
   APCLM =      0 
   BPCLM =  1e-07 
   PCLMG =      0 
   VASAT =    0.6 
   PCLMCV =  0.013 
   PCLMGCV =      0 
   VASATCV =    0.2 
   RGEXT =      0 ohm
   RGFIN =  0.001 ohm
   RSHS =      0 ohm
   RSHD =      0 ohm
   HEPI =  9e-09 m
   TSILI =  8e-09 m
   RHOC =  9e-13 ohm/m^2
   RHORSD =      1 ohm/m
   RHOEXT =      1 ohm/m
   CRATIO =    0.5 
   DELTAPRSD =      0 m
   SDTERM = 0 
   LSP = 3.6e-09 m
   LDG = 2.5e-09 m
   EPSRSP =    3.9 
   TGATE = 8.5e-09 m
   TMASK =      0 m
   ASILIEND =      0 m^2
   ARSDEND =      0 m^2
   PRSDEND =      0 m
   NSDE =  6e+25 m^-3
   RGEOA =      1 
   RGEOB =      0 m^-1
   RGEOC =      0 m^-1
   RGEOD =      0 m^-1
   RGEOE =      0 m^-1
   CGEOA =      1 
   CGEOB =      0 m^-1
   CGEOC =      0 m^-1
   CGEOD =      0 m^-1
   CGEOE =      1 
   AIGBINV = 0.0111 (Fs^2/g)^0.5m^-1
   BIGBINV =   0.03 (Fs^2/g)^0.5m^-1
   CIGBINV =  0.006 V^-1
   EIGBINV =    1.1 V
   NIGBINV =    1.2 
   AIGBACC = 0.0149 
   BIGBACC = 0.000949 
   CIGBACC =  0.075 
   NIGBACC =      3 
   AIGC = 0.0136 (Fs^2/g)^0.5m^-1
   BIGC = 0.00171 (Fs^2/g)^0.5m^-1V^-1
   CIGC =  0.075 V^-1
   NIGC =      1 
   DLCIGS =      0 m
   AIGS = 0.0136 (Fs^2/g)^0.5m^-1
   BIGS = 0.00171 (Fs^2/g)^0.5m^-1V^-1
   CIGS =  0.075 V^-1
   DLCIGD =      0 m
   AIGD = 0.0136 (Fs^2/g)^0.5m^-1
   BIGD = 0.00171 (Fs^2/g)^0.5m^-1V^-1
   CIGD =  0.075 V^-1
   POXEDGE =      1 
   AGIDL = 5.729e-12 ohm^-1
   BGIDL =  3e+08 V/m
   EGIDL =    0.1 V
   AGISL = 5.729e-12 ohm^-1
   BGISL =  3e+08 V/m
   EGISL =    0.1 V
   ALPHA0 =      0 mV^-1
   ALPHA1 =      0 V^-1
   BETA0 =     30 V^-1
   ALPHAII =      0 
   BETAII0 =      0 V^-1
   BETAII1 =      0 
   BETAII2 =    0.1 V
   ESATII =  1e+07 V/m
   LII =  5e-10 V/m
   SII0 =    0.5 V^-1
   SII1 =    0.1 
   SII2 =      0 V
   SIID =      0 V
   EOTACC = 7.5e-10 m
   DELVFBACC =      0 V
   CFS = 2.56e-11 F/m
   CFD = 2.65e-11 F/m
   COVS = 2.5e-11 F/m
   COVD = 2.5e-11 F/m
   CGSO =      0 F/m
   CGDO =      0 F/m
   CGSL =      0 F/m
   CGDL =      0 F/m
   CKAPPAS =    0.6 V
   CKAPPAD =    0.6 V
   CGBO =      0 F/m
   CGBL =      0 F/m
   CKAPPAB =    0.6 V
   CSDESW =      0 F/m
   CJS = 0.0005 F/m^2
   CJD = 0.0005 F/m^2
   CJSWS =  5e-10 F/m
   CJSWD =  5e-10 F/m
   CJSWGS =      0 F/m
   CJSWGD =      0 F/m
   PBS =      1 V
   PBD =      1 V
   PBSWS =      1 V
   PBSWD =      1 V
   PBSWGS =      1 V
   PBSWGD =      1 V
   MJS, =    0.5 
   MJD =    0.5 
   MJSWS =   0.33 
   MJSWD =   0.33 
   MJSWGS =   0.33 
   MJSWGD =   0.33 
   SJS =      0 
   SJD =      0 
   SJSWS =      0 
   SJSWD =      0 
   SJSWGS =      0 
   SJSWGD =      0 
   MJS2 =  0.125 
   MJD2 =  0.125 
   MJSWS2 =   0.33 
   MJSWD2 =   0.33 
   MJSWGS2 =   0.33 
   MJSWGD2 =   0.33 
   JSS = 0.0001 A/m^2
   JSD = 0.0001 A/m^2
   JSWS =      0 A/m
   JSWD =      0 A/m
   JSWGS =      0 A/m
   JSWGD =      0 A/m
   NJS =      1 
   NJD =      1 
   IJTHSFWD =    0.1 A
   IJTHDFWD =    0.1 A
   IJTHSREV =    0.1 A
   IJTHDREV =    0.1 A
   BVS =     10 V
   BVD =     10 V
   XJBVS =      1 
   XJBVD =      1 
   JTSS =      0 A/m^2
   JTSD =      0 A/m^2
   JTSSWS =      0 A/m
   JTSSWD =      0 A/m
   JTSSWGS =      0 A/m
   JTSSWGD =      0 A/m
   JTWEFF =      0 m
   NJTS =     20 
   NJTSD =     20 
   NJTSSW =     20 
   NJTSSWD =     20 
   NJTSSWG =     20 
   NJTSSWGD =     20 
   VTSS =     10 V
   VTSD =     10 V
   VTSSWS =     10 V
   VTSSWD =     10 V
   VTSSWGS =     10 V
   VTSSWGD =     10 V
   LINTIGEN =      0 m
   NTGEN =      1 
   AIGEN =      0 m^-3V^-1
   BIGEN =      0 m^-3V^-3
   XRCRG1 =     12 
   XRCRG2 =      1 
   NSEG = 5 
   EF =      1 
   EM = 4.1e+07 V/m
   NOIA = 6.25e+39 eV^-1s^1-EFm^-3
   NOIB = 3.125e+24 eV^-1s^1-EFm^-1
   NOIC = 8.75e+07 eV^-1s^1-EFm
   NTNOI =      1 
   TNOM =  300.1 K
   TBGASUB = 0.000702 eV/K
   TBGBSUB =   1108 K
   KT1 =      0 V
   KT1L =      0 Vm
   IIT =   -0.5 
   TII =      0 
   TGIDL = -0.0003 K^-1
   IGT =    2.5 
   TCJ =      0 K^-1
   TCJSW =      0 K^-1
   TCJSWG =      0 K^-1
   TPB =      0 K^-1
   TPBSW =      0 K^-1
   TPBSWG =      0 K^-1
   XTIS =      3 
   XTID =      3 
   XTSS =   0.02 
   XTSD =   0.02 
   XTSSWS =   0.02 
   XTSSWD =   0.02 
   XTSSWGS =   0.02 
   XTSSWGD =   0.02 
   TNJTS =      0 
   TNJTSD =      0 
   TNJTSSW =      0 
   TNJTSSWD =      0 
   TNJTSSWG =      0 
   TNJTSSWGD =      0 
   RTH0 =   0.01 ohm
   CTH0 =  1e-05 F
   WTH0 =      0 m
   LNBODY =      0 
   NNBODY =      0 
   PNBODY =      0 
   LPHIG =      0 
   NPHIG =      0 
   PPHIG =      0 
   LNGATE =      0 
   NNGATE =      0 
   PNGATE =      0 
   LCIT =      0 
   NCIT =      0 
   PCIT =      0 
   LCDSC =      0 
   NCDSC =      0 
   PCDSC =      0 
   LCDSCD =      0 
   NCDSCD =      0 
   PCDSCD =      0 
   LCDSCDR =      0 
   NCDSCDR =      0 
   PCDSCDR =      0 
   LDVT0 =      0 
   NDVT0 =      0 
   PDVT0 =      0 
   LDVT1 =      0 
   NDVT1 =      0 
   PDVT1 =      0 
   LPHIN =      0 
   NPHIN =      0 
   PPHIN =      0 
   LETA0 =      0 
   NETA0 =      0 
   PETA0 =      0 
   LETA0R =      0 
   NETA0R =      0 
   PETA0R =      0 
   LDSUB =      0 
   NDSUB =      0 
   PDSUB =      0 
   LK1RSCE =      0 
   NK1RSCE =      0 
   PK1RSCE =      0 
   LLPE0 =      0 
   NLPE0 =      0 
   PLPE0 =      0 
   LQMFACTOR =      0 
   NQMFACTOR =      0 
   PQMFACTOR =      0 
   LQMTCENIV =      0 
   NQMTCENIV =      0 
   PQMTCENIV =      0 
   LQMTCENCV =      0 
   NQMTCENCV =      0 
   PQMTCENCV =      0 
   LVSAT =      0 
   NVSAT =      0 
   PVSAT =      0 
   LKSATIV =      0 
   NKSATIV =      0 
   PKSATIV =      0 
   LMEXP =      0 
   NMEXP =      0 
   PMEXP =      0 
   LPTWG =      0 
   NPTWG =      0 
   PPTWG =      0 
   LTHETASAT =      0 
   NTHETASAT =      0 
   PTHETASAT =      0 
   LU0 =      0 
   NU0 =      0 
   PU0 =      0 
   LUP =      0 
   NUP =      0 
   PUP =      0 
   LUA =      0 
   NUA =      0 
   PUA =      0 
   LEU =      0 
   NEU =      0 
   PEU =      0 
   LUD =      0 
   NUD =      0 
   PUD =      0 
   LUCS =      0 
   NUCS =      0 
   PUCS =      0 
   LPCLM =      0 
   NPCLM =      0 
   PPCLM =      0 
   LPCLMCV =      0 
   NPCLMCV =      0 
   PPCLMCV =      0 
   LRDSW =      0 
   NRDSW =      0 
   PRDSW =      0 
   LRSW =      0 
   NRSW =      0 
   PRSW =      0 
   LRDW =      0 
   NRDW =      0 
   PRDW =      0 
   LPRWG =      0 
   NPRWG =      0 
   PPRWG =      0 
   LWR =      0 
   NWR =      0 
   PWR =      0 
   LPDIBL1 =      0 
   NPDIBL1 =      0 
   PPDIBL1 =      0 
   LPDIBL2 =      0 
   NPDIBL2 =      0 
   PPDIBL2 =      0 
   LDROUT =      0 
   NDROUT =      0 
   PDROUT =      0 
   LPVAG =      0 
   NPVAG =      0 
   PPVAG =      0 
   LAIGBINV =      0 
   NAIGBINV =      0 
   PAIGBINV =      0 
   LBIGBINV =      0 
   NBIGBINV =      0 
   PBIGBINV =      0 
   LCIGBINV =      0 
   NCIGBINV =      0 
   PCIGBINV =      0 
   LEIGBINV =      0 
   NEIGBINV =      0 
   PEIGBINV =      0 
   LNIGBINV =      0 
   NNIGBINV =      0 
   PNIGBINV =      0 
   LAIGC =      0 
   NAIGC =      0 
   PAIGC =      0 
   LBIGC =      0 
   NBIGC =      0 
   PBIGC =      0 
   LCIGC =      0 
   NCIGC =      0 
   PCIGC =      0 
   LNIGC =      0 
   NNIGC =      0 
   PNIGC =      0 
   LAIGS =      0 
   NAIGS =      0 
   PAIGS =      0 
   LBIGS =      0 
   NBIGS =      0 
   PBIGS =      0 
   LCIGS =      0 
   NCIGS =      0 
   PCIGS =      0 
   LAIGD =      0 
   NAIGD =      0 
   PAIGD =      0 
   LBIGD =      0 
   NBIGD =      0 
   PBIGD =      0 
   LCIGD =      0 
   NCIGD =      0 
   PCIGD =      0 
   LPOXEDGE =      0 
   NPOXEDGE =      0 
   PPOXEDGE =      0 
   LAGIDL =      0 
   NAGIDL =      0 
   PAGIDL =      0 
   LBGIDL =      0 
   NBGIDL =      0 
   PBGIDL =      0 
   LEGIDL =      0 
   NEGIDL =      0 
   PEGIDL =      0 
   LAGISL =      0 
   NAGISL =      0 
   PAGISL =      0 
   LBGISL =      0 
   NBGISL =      0 
   PBGISL =      0 
   LEGISL =      0 
   NEGISL =      0 
   PEGISL =      0 
   LALPHA0 =      0 
   NALPHA0 =      0 
   PALPHA0 =      0 
   LALPHA1 =      0 
   NALPHA1 =      0 
   PALPHA1 =      0 
   LBETA0 =      0 
   NBETA0 =      0 
   PBETA0 =      0 
   LALPHAII =      0 
   NALPHAII =      0 
   PALPHAII =      0 
   LBETAII0 =      0 
   NBETAII0 =      0 
   PBETAII0 =      0 
   LBETAII1 =      0 
   NBETAII1 =      0 
   PBETAII1 =      0 
   LBETAII2 =      0 
   NBETAII2 =      0 
   PBETAII2 =      0 
   LESATII =      0 
   NESATII =      0 
   PESATII =      0 
   LLII =      0 
   NLII =      0 
   PLII =      0 
   LSII0 =      0 
   NSII0 =      0 
   PSII0 =      0 
   LSII1 =      0 
   NSII1 =      0 
   PSII1 =      0 
   LSII2 =      0 
   NSII2 =      0 
   PSII2 =      0 
   LSIID =      0 
   NSIID =      0 
   PSIID =      0 
   LCFS =      0 
   NCFS =      0 
   PCFS =      0 
   LCFD =      0 
   NCFD =      0 
   PCFD =      0 
   LCOVS =      0 
   NCOVS =      0 
   PCOVS =      0 
   LCOVD =      0 
   NCOVD =      0 
   PCOVD =      0 
   LCGSL =      0 
   NCGSL =      0 
   PCGSL =      0 
   LCGDL =      0 
   NCGDL =      0 
   PCGDL =      0 
   LCKAPPAS =      0 
   NCKAPPAS =      0 
   PCKAPPAS =      0 
   LCKAPPAD =      0 
   NCKAPPAD =      0 
   PCKAPPAD =      0 
   LCGBL =      0 
   NCGBL =      0 
   PCGBL =      0 
   LCKAPPAB =      0 
   NCKAPPAB =      0 
   PCKAPPAB =      0 
   LNTGEN =      0 
   NNTGEN =      0 
   PNTGEN =      0 
   LAIGEN =      0 
   NAIGEN =      0 
   PAIGEN =      0 
   LBIGEN =      0 
   NBIGEN =      0 
   PBIGEN =      0 
   LXRCRG1 =      0 
   NXRCRG1 =      0 
   PXRCRG1 =      0 
   LXRCRG2 =      0 
   NXRCRG2 =      0 
   PXRCRG2 =      0 
   LINTNOI =      0 
   NINTNOI =      0 
   PINTNOI =      0 
   LUTE =      0 
   NUTE =      0 
   PUTE =      0 
   LUTL =      0 
   NUTL =      0 
   PUTL =      0 
   LUA1 =      0 
   NUA1 =      0 
   PUA1 =      0 
   LUD1 =      0 
   NUD1 =      0 
   PUD1 =      0 
   LUCSTE =      0 
   NUCSTE =      0 
   PUCSTE =      0 
   LPTWGT =      0 
   NPTWGT =      0 
   PPTWGT =      0 
   LAT =      0 
   NAT =      0 
   PAT =      0 
   LSTTHETASAT =      0 
   NSTTHETASAT =      0 
   PSTTHETASAT =      0 
   LPRT =      0 
   NPRT =      0 
   PPRT =      0 
   LIIT =      0 
   NIIT =      0 
   PIIT =      0 
   LTII =      0 
   NTII =      0 
   PTII =      0 
   LTGIDL =      0 
   NTGIDL =      0 
   PTGIDL =      0 
   LIGT =      0 
   NIGT =      0 
   PIGT =      0 
   L = 1.8e-08 m
   D =  4e-08 m
   TFIN =  1e-08 m
   FPITCH = 3.2e-08 m
   NF = 1 
   NFIN = 1 
   NGCON = 1 
   ASEO =      0 m^2
   ADEO =      0 m^2
   PSEO =      0 m
   PDEO =      0 m
   ASEJ =      0 m^2
   ADEJ =      0 m^2
   PSEJ =      0 m
   PDEJ =      0 m
   CGSP =      0 F
   CGDP =      0 F
   CDSP =      0 F
   NRS =      0 
   NRD =      0 
   LRSD = 1.8e-08 m
   XL =      0 m
   DELVTRAND =      0 
   U0MULT =      1 
   IDS0MULT =      1 
   Lmin =  1e-08 m
   Lmax =  3e-08 m
   NFINmin = 0 
   NFINmax = 1 
   LVSAT1 =      0 
   NVSAT1 =      0 
   PVSAT1 =      0 
   LETAMOB =      0 
   NETAMOB =      0 
   PETAMOB =      0 
   LPCLMG =      0 
   NPCLMG =      0 
   PPCLMG =      0 
   LVASAT =      0 
   NVASAT =      0 
   PVASAT =      0 
   LAIGBACC =      0 
   NAIGBACC =      0 
   PAIGBACC =      0 
   LBIGBACC =      0 
   NBIGBACC =      0 
   PBIGBACC =      0 
   LCIGBACC =      0 
   NCIGBACC =      0 
   PCIGBACC =      0 
   LNIGBACC =      0 
   NNIGBACC =      0 
   PNIGBACC =      0 
 Model Name: nfet 
 BSIM-MG BULK Model(Level72)
   VERSION = 105.03  
   DEVTYPE = 1 
   BULKMOD = 1  
   COREMOD = 0 
   GEOMOD = 1 
   RDSMOD = 1 
   IGCMOD = 1 
   IGBMOD = 1 
   GIDLMOD = 0 
   IIMOD = 0 
   NQSMOD = 0 
   SHMOD = 0 
   RGATEMOD = 0 
   RGEOMOD = 1 
   CGEOMOD = 2 
   CAPMOD = 0 
   LINT = 1.5e-09 m
   LL =      0 m^(LLN+1)
   LLN =      1 
   DLC =      0 m
   DLBIN =      0 
   LLC =      0 m^(LLN+1)
   EOT = 7.5e-10 m
   TOXP = 1.3e-09 m
   EOTBOX = 1.4e-07 m
   HFIN = 2.3e-08 m
   FECH =      1 
   DELTAW =      0 m
   FECHCV =      1 
   DELTAWCV =      0 m
   NBODY =  5e+22 m^-3
   NSD =  3e+26 m^-3
   PHIG =  4.419 eV
   EPSROX =    3.9 
   EPSRSUB =   11.9 
   EASUB =   4.05 eV
   NI0SUB = 1.1e+16 m^-3
   BG0SUB =   1.12 eV
   NC0SUB = 2.86e+25 m^-3
   NGATE =      0 m^-3
   CIT = 1.3e-05 F/m^2
   CDSC = 0.0226 F/m^2
   CDSCD =  0.007 F/m^2
   CDSCDR =  0.007 
   DVT0 =   0.01 
   DVT1 =   0.69 
   PHIN =   0.05 V
   ETA0 = 0.5063 
   ETA0R = 0.5063 
   DSUB =    0.9 
   K1RSCE =      0 V^1/2
   LPE0 =  5e-09 m
   DVTSHIFT =      0 
   QMFACTOR =      0 
   QMTCENIV =      0 
   QMTCENCV =      0 
   AQMTCEN =      0 
   BQMTCEN = 1.2e-08 
   ETAQM =   0.54 
   QM0 = 0.001143 
   PQM =   0.66 
   QM0ACC =  0.001 
   PQMACC =   0.66 
   VSAT = 1.1e+05 
   AVSAT =      0 
   BVSAT =  1e-07 
   VSAT1 = 1.1e+05 
   AVSAT1 =      0 
   BVSAT1 =  1e-07 
   DELTAVSAT =      1 
   KSATIV =    0.8 
   MEXP =      3 
   AMEXP =      0 
   BMEXP =      1 
   PTWG =      0 
   APTWG =      0 
   BPTWG =  1e-07 
   AT = -0.00156 
   TMEXP =      0 
   PTWGT =  0.004 
   U0 =  0.052 
   ETAMOB =      2 
   UP =      0 
   LPA =      1 
   UA =    0.3 
   AUA =      0 
   BUA =  1e-07 
   EU =    1.8 
   AEU =      0 
   BEU =  1e-07 
   UD =      0 
   AUD =      0 
   BUD =  5e-08 
   UCS =      0 
   UTE =      0 
   UTL = -0.0015 
   UA1 = 0.001032 
   UD1 =      0 
   UCSTE = -0.00478 
   RDSWMIN =      0 
   RDSW =    100 
   ARDSW =      0 
   BRDSW =  1e-07 
   RSWMIN =      0 
   RSW =      0 
   ARSW =      0 
   BRSW =  1e-07 
   RDWMIN =      0 
   RDW =      0 
   ARDW =      0 
   BRDW =  1e-07 
   PRWG =      0 
   WR =      1 
   PRT =  0.001 
   PDIBL1 =    1.3 
   PDIBL2 = 0.0002 
   DROUT =   1.06 
   PVAG =      1 
   PCLM =    0.2 
   APCLM =      0 
   BPCLM =  1e-07 
   PCLMG =      0 
   VASAT =    0.6 
   PCLMCV =  0.013 
   PCLMGCV =      0 
   VASATCV =    0.2 
   RGEXT =      0 ohm
   RGFIN =  0.001 ohm
   RSHS =      0 ohm
   RSHD =      0 ohm
   HEPI =  9e-09 m
   TSILI =  8e-09 m
   RHOC =  8e-13 ohm/m^2
   RHORSD =      1 ohm/m
   RHOEXT =      1 ohm/m
   CRATIO =    0.5 
   DELTAPRSD =      0 m
   SDTERM = 0 
   LSP = 3.6e-09 m
   LDG = 2.5e-09 m
   EPSRSP =    3.9 
   TGATE = 8.5e-09 m
   TMASK =      0 m
   ASILIEND =      0 m^2
   ARSDEND =      0 m^2
   PRSDEND =      0 m
   NSDE =  6e+25 m^-3
   RGEOA =      1 
   RGEOB =      0 m^-1
   RGEOC =      0 m^-1
   RGEOD =      0 m^-1
   RGEOE =      0 m^-1
   CGEOA =      1 
   CGEOB =      0 m^-1
   CGEOC =      0 m^-1
   CGEOD =      0 m^-1
   CGEOE =      1 
   AIGBINV = 0.0111 (Fs^2/g)^0.5m^-1
   BIGBINV =   0.03 (Fs^2/g)^0.5m^-1
   CIGBINV =  0.006 V^-1
   EIGBINV =    1.1 V
   NIGBINV =    1.2 
   AIGBACC = 0.0149 
   BIGBACC = 0.000949 
   CIGBACC =  0.075 
   NIGBACC =      3 
   AIGC = 0.0136 (Fs^2/g)^0.5m^-1
   BIGC = 0.00171 (Fs^2/g)^0.5m^-1V^-1
   CIGC =  0.075 V^-1
   NIGC =      1 
   DLCIGS =      0 m
   AIGS = 0.0136 (Fs^2/g)^0.5m^-1
   BIGS = 0.00171 (Fs^2/g)^0.5m^-1V^-1
   CIGS =  0.075 V^-1
   DLCIGD =      0 m
   AIGD = 0.0136 (Fs^2/g)^0.5m^-1
   BIGD = 0.00171 (Fs^2/g)^0.5m^-1V^-1
   CIGD =  0.075 V^-1
   POXEDGE =      1 
   AGIDL = 5.729e-12 ohm^-1
   BGIDL =  3e+08 V/m
   EGIDL =    0.1 V
   AGISL = 5.729e-12 ohm^-1
   BGISL =  3e+08 V/m
   EGISL =    0.1 V
   ALPHA0 =      0 mV^-1
   ALPHA1 =      0 V^-1
   BETA0 =     30 V^-1
   ALPHAII =      0 
   BETAII0 =      0 V^-1
   BETAII1 =      0 
   BETAII2 =    0.1 V
   ESATII =  1e+07 V/m
   LII =  5e-10 V/m
   SII0 =    0.5 V^-1
   SII1 =    0.1 
   SII2 =      0 V
   SIID =      0 V
   EOTACC = 7.5e-10 m
   DELVFBACC =      0 V
   CFS = 2.56e-11 F/m
   CFD = 2.65e-11 F/m
   COVS = 2.5e-11 F/m
   COVD = 2.5e-11 F/m
   CGSO =      0 F/m
   CGDO =      0 F/m
   CGSL =      0 F/m
   CGDL =      0 F/m
   CKAPPAS =    0.6 V
   CKAPPAD =    0.6 V
   CGBO =      0 F/m
   CGBL =      0 F/m
   CKAPPAB =    0.6 V
   CSDESW =      0 F/m
   CJS = 0.0005 F/m^2
   CJD = 0.0005 F/m^2
   CJSWS =  5e-10 F/m
   CJSWD =  5e-10 F/m
   CJSWGS =      0 F/m
   CJSWGD =      0 F/m
   PBS =      1 V
   PBD =      1 V
   PBSWS =      1 V
   PBSWD =      1 V
   PBSWGS =      1 V
   PBSWGD =      1 V
   MJS, =    0.5 
   MJD =    0.5 
   MJSWS =   0.33 
   MJSWD =   0.33 
   MJSWGS =   0.33 
   MJSWGD =   0.33 
   SJS =      0 
   SJD =      0 
   SJSWS =      0 
   SJSWD =      0 
   SJSWGS =      0 
   SJSWGD =      0 
   MJS2 =  0.125 
   MJD2 =  0.125 
   MJSWS2 =   0.33 
   MJSWD2 =   0.33 
   MJSWGS2 =   0.33 
   MJSWGD2 =   0.33 
   JSS = 0.0001 A/m^2
   JSD = 0.0001 A/m^2
   JSWS =      0 A/m
   JSWD =      0 A/m
   JSWGS =      0 A/m
   JSWGD =      0 A/m
   NJS =      1 
   NJD =      1 
   IJTHSFWD =    0.1 A
   IJTHDFWD =    0.1 A
   IJTHSREV =    0.1 A
   IJTHDREV =    0.1 A
   BVS =     10 V
   BVD =     10 V
   XJBVS =      1 
   XJBVD =      1 
   JTSS =      0 A/m^2
   JTSD =      0 A/m^2
   JTSSWS =      0 A/m
   JTSSWD =      0 A/m
   JTSSWGS =      0 A/m
   JTSSWGD =      0 A/m
   JTWEFF =      0 m
   NJTS =     20 
   NJTSD =     20 
   NJTSSW =     20 
   NJTSSWD =     20 
   NJTSSWG =     20 
   NJTSSWGD =     20 
   VTSS =     10 V
   VTSD =     10 V
   VTSSWS =     10 V
   VTSSWD =     10 V
   VTSSWGS =     10 V
   VTSSWGD =     10 V
   LINTIGEN =      0 m
   NTGEN =      1 
   AIGEN =      0 m^-3V^-1
   BIGEN =      0 m^-3V^-3
   XRCRG1 =     12 
   XRCRG2 =      1 
   NSEG = 5 
   EF =      1 
   EM = 4.1e+07 V/m
   NOIA = 6.25e+39 eV^-1s^1-EFm^-3
   NOIB = 3.125e+24 eV^-1s^1-EFm^-1
   NOIC = 8.75e+07 eV^-1s^1-EFm
   NTNOI =      1 
   TNOM =  300.1 K
   TBGASUB = 0.000702 eV/K
   TBGBSUB =   1108 K
   KT1 =      0 V
   KT1L =      0 Vm
   IIT =   -0.5 
   TII =      0 
   TGIDL = -0.0003 K^-1
   IGT =    2.5 
   TCJ =      0 K^-1
   TCJSW =      0 K^-1
   TCJSWG =      0 K^-1
   TPB =      0 K^-1
   TPBSW =      0 K^-1
   TPBSWG =      0 K^-1
   XTIS =      3 
   XTID =      3 
   XTSS =   0.02 
   XTSD =   0.02 
   XTSSWS =   0.02 
   XTSSWD =   0.02 
   XTSSWGS =   0.02 
   XTSSWGD =   0.02 
   TNJTS =      0 
   TNJTSD =      0 
   TNJTSSW =      0 
   TNJTSSWD =      0 
   TNJTSSWG =      0 
   TNJTSSWGD =      0 
   RTH0 =   0.01 ohm
   CTH0 =  1e-05 F
   WTH0 =      0 m
   LNBODY =      0 
   NNBODY =      0 
   PNBODY =      0 
   LPHIG =      0 
   NPHIG =      0 
   PPHIG =      0 
   LNGATE =      0 
   NNGATE =      0 
   PNGATE =      0 
   LCIT =      0 
   NCIT =      0 
   PCIT =      0 
   LCDSC =      0 
   NCDSC =      0 
   PCDSC =      0 
   LCDSCD =      0 
   NCDSCD =      0 
   PCDSCD =      0 
   LCDSCDR =      0 
   NCDSCDR =      0 
   PCDSCDR =      0 
   LDVT0 =      0 
   NDVT0 =      0 
   PDVT0 =      0 
   LDVT1 =      0 
   NDVT1 =      0 
   PDVT1 =      0 
   LPHIN =      0 
   NPHIN =      0 
   PPHIN =      0 
   LETA0 =      0 
   NETA0 =      0 
   PETA0 =      0 
   LETA0R =      0 
   NETA0R =      0 
   PETA0R =      0 
   LDSUB =      0 
   NDSUB =      0 
   PDSUB =      0 
   LK1RSCE =      0 
   NK1RSCE =      0 
   PK1RSCE =      0 
   LLPE0 =      0 
   NLPE0 =      0 
   PLPE0 =      0 
   LQMFACTOR =      0 
   NQMFACTOR =      0 
   PQMFACTOR =      0 
   LQMTCENIV =      0 
   NQMTCENIV =      0 
   PQMTCENIV =      0 
   LQMTCENCV =      0 
   NQMTCENCV =      0 
   PQMTCENCV =      0 
   LVSAT =      0 
   NVSAT =      0 
   PVSAT =      0 
   LKSATIV =      0 
   NKSATIV =      0 
   PKSATIV =      0 
   LMEXP =      0 
   NMEXP =      0 
   PMEXP =      0 
   LPTWG =      0 
   NPTWG =      0 
   PPTWG =      0 
   LTHETASAT =      0 
   NTHETASAT =      0 
   PTHETASAT =      0 
   LU0 =      0 
   NU0 =      0 
   PU0 =      0 
   LUP =      0 
   NUP =      0 
   PUP =      0 
   LUA =      0 
   NUA =      0 
   PUA =      0 
   LEU =      0 
   NEU =      0 
   PEU =      0 
   LUD =      0 
   NUD =      0 
   PUD =      0 
   LUCS =      0 
   NUCS =      0 
   PUCS =      0 
   LPCLM =      0 
   NPCLM =      0 
   PPCLM =      0 
   LPCLMCV =      0 
   NPCLMCV =      0 
   PPCLMCV =      0 
   LRDSW =      0 
   NRDSW =      0 
   PRDSW =      0 
   LRSW =      0 
   NRSW =      0 
   PRSW =      0 
   LRDW =      0 
   NRDW =      0 
   PRDW =      0 
   LPRWG =      0 
   NPRWG =      0 
   PPRWG =      0 
   LWR =      0 
   NWR =      0 
   PWR =      0 
   LPDIBL1 =      0 
   NPDIBL1 =      0 
   PPDIBL1 =      0 
   LPDIBL2 =      0 
   NPDIBL2 =      0 
   PPDIBL2 =      0 
   LDROUT =      0 
   NDROUT =      0 
   PDROUT =      0 
   LPVAG =      0 
   NPVAG =      0 
   PPVAG =      0 
   LAIGBINV =      0 
   NAIGBINV =      0 
   PAIGBINV =      0 
   LBIGBINV =      0 
   NBIGBINV =      0 
   PBIGBINV =      0 
   LCIGBINV =      0 
   NCIGBINV =      0 
   PCIGBINV =      0 
   LEIGBINV =      0 
   NEIGBINV =      0 
   PEIGBINV =      0 
   LNIGBINV =      0 
   NNIGBINV =      0 
   PNIGBINV =      0 
   LAIGC =      0 
   NAIGC =      0 
   PAIGC =      0 
   LBIGC =      0 
   NBIGC =      0 
   PBIGC =      0 
   LCIGC =      0 
   NCIGC =      0 
   PCIGC =      0 
   LNIGC =      0 
   NNIGC =      0 
   PNIGC =      0 
   LAIGS =      0 
   NAIGS =      0 
   PAIGS =      0 
   LBIGS =      0 
   NBIGS =      0 
   PBIGS =      0 
   LCIGS =      0 
   NCIGS =      0 
   PCIGS =      0 
   LAIGD =      0 
   NAIGD =      0 
   PAIGD =      0 
   LBIGD =      0 
   NBIGD =      0 
   PBIGD =      0 
   LCIGD =      0 
   NCIGD =      0 
   PCIGD =      0 
   LPOXEDGE =      0 
   NPOXEDGE =      0 
   PPOXEDGE =      0 
   LAGIDL =      0 
   NAGIDL =      0 
   PAGIDL =      0 
   LBGIDL =      0 
   NBGIDL =      0 
   PBGIDL =      0 
   LEGIDL =      0 
   NEGIDL =      0 
   PEGIDL =      0 
   LAGISL =      0 
   NAGISL =      0 
   PAGISL =      0 
   LBGISL =      0 
   NBGISL =      0 
   PBGISL =      0 
   LEGISL =      0 
   NEGISL =      0 
   PEGISL =      0 
   LALPHA0 =      0 
   NALPHA0 =      0 
   PALPHA0 =      0 
   LALPHA1 =      0 
   NALPHA1 =      0 
   PALPHA1 =      0 
   LBETA0 =      0 
   NBETA0 =      0 
   PBETA0 =      0 
   LALPHAII =      0 
   NALPHAII =      0 
   PALPHAII =      0 
   LBETAII0 =      0 
   NBETAII0 =      0 
   PBETAII0 =      0 
   LBETAII1 =      0 
   NBETAII1 =      0 
   PBETAII1 =      0 
   LBETAII2 =      0 
   NBETAII2 =      0 
   PBETAII2 =      0 
   LESATII =      0 
   NESATII =      0 
   PESATII =      0 
   LLII =      0 
   NLII =      0 
   PLII =      0 
   LSII0 =      0 
   NSII0 =      0 
   PSII0 =      0 
   LSII1 =      0 
   NSII1 =      0 
   PSII1 =      0 
   LSII2 =      0 
   NSII2 =      0 
   PSII2 =      0 
   LSIID =      0 
   NSIID =      0 
   PSIID =      0 
   LCFS =      0 
   NCFS =      0 
   PCFS =      0 
   LCFD =      0 
   NCFD =      0 
   PCFD =      0 
   LCOVS =      0 
   NCOVS =      0 
   PCOVS =      0 
   LCOVD =      0 
   NCOVD =      0 
   PCOVD =      0 
   LCGSL =      0 
   NCGSL =      0 
   PCGSL =      0 
   LCGDL =      0 
   NCGDL =      0 
   PCGDL =      0 
   LCKAPPAS =      0 
   NCKAPPAS =      0 
   PCKAPPAS =      0 
   LCKAPPAD =      0 
   NCKAPPAD =      0 
   PCKAPPAD =      0 
   LCGBL =      0 
   NCGBL =      0 
   PCGBL =      0 
   LCKAPPAB =      0 
   NCKAPPAB =      0 
   PCKAPPAB =      0 
   LNTGEN =      0 
   NNTGEN =      0 
   PNTGEN =      0 
   LAIGEN =      0 
   NAIGEN =      0 
   PAIGEN =      0 
   LBIGEN =      0 
   NBIGEN =      0 
   PBIGEN =      0 
   LXRCRG1 =      0 
   NXRCRG1 =      0 
   PXRCRG1 =      0 
   LXRCRG2 =      0 
   NXRCRG2 =      0 
   PXRCRG2 =      0 
   LINTNOI =      0 
   NINTNOI =      0 
   PINTNOI =      0 
   LUTE =      0 
   NUTE =      0 
   PUTE =      0 
   LUTL =      0 
   NUTL =      0 
   PUTL =      0 
   LUA1 =      0 
   NUA1 =      0 
   PUA1 =      0 
   LUD1 =      0 
   NUD1 =      0 
   PUD1 =      0 
   LUCSTE =      0 
   NUCSTE =      0 
   PUCSTE =      0 
   LPTWGT =      0 
   NPTWGT =      0 
   PPTWGT =      0 
   LAT =      0 
   NAT =      0 
   PAT =      0 
   LSTTHETASAT =      0 
   NSTTHETASAT =      0 
   PSTTHETASAT =      0 
   LPRT =      0 
   NPRT =      0 
   PPRT =      0 
   LIIT =      0 
   NIIT =      0 
   PIIT =      0 
   LTII =      0 
   NTII =      0 
   PTII =      0 
   LTGIDL =      0 
   NTGIDL =      0 
   PTGIDL =      0 
   LIGT =      0 
   NIGT =      0 
   PIGT =      0 
   L = 1.8e-08 m
   D =  4e-08 m
   TFIN =  1e-08 m
   FPITCH = 3.2e-08 m
   NF = 1 
   NFIN = 1 
   NGCON = 1 
   ASEO =      0 m^2
   ADEO =      0 m^2
   PSEO =      0 m
   PDEO =      0 m
   ASEJ =      0 m^2
   ADEJ =      0 m^2
   PSEJ =      0 m
   PDEJ =      0 m
   CGSP =      0 F
   CGDP =      0 F
   CDSP =      0 F
   NRS =      0 
   NRD =      0 
   LRSD = 1.8e-08 m
   XL =      0 m
   DELVTRAND =      0 
   U0MULT =      1 
   IDS0MULT =      1 
   Lmin =  1e-08 m
   Lmax =  3e-08 m
   NFINmin = 0 
   NFINmax = 1 
   LVSAT1 =      0 
   NVSAT1 =      0 
   PVSAT1 =      0 
   LETAMOB =      0 
   NETAMOB =      0 
   PETAMOB =      0 
   LPCLMG =      0 
   NPCLMG =      0 
   PPCLMG =      0 
   LVASAT =      0 
   NVASAT =      0 
   PVASAT =      0 
   LAIGBACC =      0 
   NAIGBACC =      0 
   PAIGBACC =      0 
   LBIGBACC =      0 
   NBIGBACC =      0 
   PBIGBACC =      0 
   LCIGBACC =      0 
   NCIGBACC =      0 
   PCIGBACC =      0 
   LNIGBACC =      0 
   NNIGBACC =      0 
   PNIGBACC =      0 
  **info** (ptm14hp.sp:15) DC voltage reset to initial transient source value              in source        0:vin_0               new dc=  0.8000D+00
  
 **warning**  No DC path to ground from node        0:outin_40         defined in subckt 0               ; Connected by HSPICE with gdcpath


      
 **info** set option symb=1 internally to help for convergence.
 *****************************************************************
 ******  option summary
 ******
 runlvl  = 3         bypass  = 2         
  Opening plot unit= 15
 file=ptm14hp.pa0                                                              

1****** HSPICE -- F-2011.09-SP2 64-BIT (Feb 27 2012) linux ******               
 ******  
 $this uut was automatically generated by:

  ******  operating point information tnom=  25.000 temp=  25.000 *****
 ***** operating point status is voltage   simulation time is     0.     
     node    =voltage       node    =voltage       node    =voltage

 + 0:inb_0   = 800.0000m  0:inb_1   = 800.0000m  0:inb_2   = 800.0000m
 + 0:outb_00 = 799.0248m  0:outb_10 = 799.0248m  0:outb_20 = 799.0248m
 + 0:outin_00=   1.0221m  0:outin_01=   1.0221m  0:outin_02=   1.0221m
 + 0:outin_10= 799.1963m  0:outin_11= 799.1963m  0:outin_12= 799.1963m
 + 0:outin_20=   1.0414m  0:outin_21=   1.0414m  0:outin_22=   1.0414m
 + 0:outin_30= 799.1960m  0:outin_31= 799.1960m  0:outin_32= 799.1960m
 + 0:outin_40=   9.1920m  0:outin_41=   9.1920m  0:outin_42=   9.1920m
 + 0:vdd     = 800.0000m

 ******  
 $this uut was automatically generated by:

  ******  transient analysis tnom=  25.000 temp=  25.000 *****
 trf_delay_001=   2.2394p  targ=  31.2568p   trig=  29.0174p
 tfr_delay_001=  -1.0421n  targ=  35.9798p   trig=   1.0780n
 trf_delay_002=  -1.9926n  targ=  36.3409p   trig=   2.0289n
 tfr_delay_002=  -1.9976n  targ=   1.0805n   trig=   3.0781n
 trf_delay_003=  -1.9979n  targ=   2.0312n   trig=   4.0291n
 tfr_delay_003=  -1.9989n  targ=   3.0792n   trig=   5.0780n
 trf_delay_004=  -1.9977n  targ=   4.0313n   trig=   6.0290n
 tfr_delay_004=  -1.9977n  targ=   5.0805n   trig=   7.0782n
 trf_delay_101=   1.0463n  targ=   1.0823n   trig=  35.9798p
 tfr_delay_101=   1.9044p  targ=  33.1613p   trig=  31.2568p
 trf_delay_102=   1.9987n  targ=   3.0792n   trig=   1.0805n
 tfr_delay_102=   1.9967n  targ=   2.0331n   trig=  36.3409p
 trf_delay_103=   2.0031n  targ=   5.0823n   trig=   3.0792n
 tfr_delay_103=   2.0016n  targ=   4.0328n   trig=   2.0312n
 trf_delay_104=   2.0015n  targ=   7.0820n   trig=   5.0805n
 tfr_delay_104=   2.0018n  targ=   6.0331n   trig=   4.0313n
 trf_delay_201= 642.3468f  targ=  33.8036p   trig=  33.1613p
 tfr_delay_201=  -1.0461n  targ=  36.2080p   trig=   1.0823n
 trf_delay_202=  -1.9968n  targ=  36.2550p   trig=   2.0331n
 tfr_delay_202=  -1.9963n  targ=   1.0829n   trig=   3.0792n
 trf_delay_203=  -1.9988n  targ=   2.0340n   trig=   4.0328n
 tfr_delay_203=  -2.0036n  targ=   3.0786n   trig=   5.0823n
 trf_delay_204=  -1.9991n  targ=   4.0340n   trig=   6.0331n
 tfr_delay_204=  -1.9991n  targ=   5.0829n   trig=   7.0820n
 trf_delay_011=   2.2394p  targ=  31.2568p   trig=  29.0174p
 tfr_delay_011=  -2.0424n  targ=  35.9798p   trig=   2.0783n
 trf_delay_012=  -3.9928n  targ=  36.3409p   trig=   4.0291n
 tfr_delay_012=  -3.9992n  targ=   2.0793n   trig=   6.0785n
 trf_delay_111=   2.0436n  targ=   2.0796n   trig=  35.9798p
 tfr_delay_111=   1.9044p  targ=  33.1613p   trig=  31.2568p
 trf_delay_112=   3.9996n  targ=   6.0789n   trig=   2.0793n
 tfr_delay_112=   3.9965n  targ=   4.0328n   trig=  36.3409p
 trf_delay_211= 642.3468f  targ=  33.8036p   trig=  33.1613p
 tfr_delay_211=  -2.0434n  targ=  36.2080p   trig=   2.0796n
 trf_delay_212=  -3.9966n  targ=  36.2550p   trig=   4.0328n
 tfr_delay_212=  -4.0004n  targ=   2.0785n   trig=   6.0789n
 trf_delay_021=   2.2394p  targ=  31.2568p   trig=  29.0174p
 tfr_delay_021=  -4.0420n  targ=  35.9798p   trig=   4.0780n
 trf_delay_121=   4.0463n  targ=   4.0823n   trig=  35.9798p
 tfr_delay_121=   1.9044p  targ=  33.1613p   trig=  31.2568p
 trf_delay_221= 642.3468f  targ=  33.8036p   trig=  33.1613p
 tfr_delay_221=  -4.0461n  targ=  36.2080p   trig=   4.0823n
x

        time    voltage      voltage    
                 outin_00     outin_10  
    0.            1.0221m    799.1963m  
   10.00000p     17.0332m    799.4153m  
   20.00000p     70.8081m    797.4832m  
   30.00000p    456.3728m    552.2159m  
   40.00000p      1.5352      -1.1133   
   50.00000p      1.0102     -39.2811m  
   60.00000p    799.2103m      1.0193m  
   70.00000p    799.2197m      1.0506m  
   80.00000p    799.2058m      1.0235m  
   90.00000p    799.2096m      1.0300m  
  100.00000p    799.2145m      1.0386m  
  110.00000p    799.2194m      1.0473m  
  120.00000p    799.2244m      1.0559m  
  130.00000p    799.2252m      1.0575m  
  140.00000p    799.2230m      1.0537m  
  150.00000p    799.2208m      1.0499m  
  160.00000p    799.2185m      1.0461m  
  170.00000p    799.2163m      1.0423m  
  180.00000p    799.2141m      1.0385m  
  190.00000p    799.2118m      1.0348m  
  200.00000p    799.2096m      1.0310m  
  210.00000p    799.2074m      1.0272m  
  220.00000p    799.2052m      1.0234m  
  230.00000p    799.2054m      1.0237m  
  240.00000p    799.2064m      1.0255m  
  250.00000p    799.2075m      1.0272m  
  260.00000p    799.2085m      1.0290m  
  270.00000p    799.2096m      1.0307m  
  280.00000p    799.2106m      1.0325m  
  290.00000p    799.2117m      1.0343m  
  300.00000p    799.2127m      1.0360m  
  310.00000p    799.2138m      1.0378m  
  320.00000p    799.2148m      1.0395m  
  330.00000p    799.2159m      1.0413m  
  340.00000p    799.2169m      1.0431m  
  350.00000p    799.2180m      1.0448m  
  360.00000p    799.2190m      1.0466m  
  370.00000p    799.2201m      1.0483m  
  380.00000p    799.2211m      1.0501m  
  390.00000p    799.2222m      1.0519m  
  400.00000p    799.2232m      1.0536m  
  410.00000p    799.2243m      1.0554m  
  420.00000p    799.2253m      1.0572m  
  430.00000p    799.2264m      1.0589m  
  440.00000p    799.2263m      1.0587m  
  450.00000p    799.2257m      1.0578m  
  460.00000p    799.2251m      1.0569m  
  470.00000p    799.2246m      1.0560m  
  480.00000p    799.2240m      1.0550m  
  490.00000p    799.2235m      1.0541m  
  500.00000p    799.2229m      1.0532m  
  510.00000p    799.2224m      1.0523m  
  520.00000p    799.2218m      1.0514m  
  530.00000p    799.2213m      1.0504m  
  540.00000p    799.2207m      1.0495m  
  550.00000p    799.2202m      1.0486m  
  560.00000p    799.2196m      1.0477m  
  570.00000p    799.2191m      1.0467m  
  580.00000p    799.2185m      1.0458m  
  590.00000p    799.2179m      1.0449m  
  600.00000p    799.2174m      1.0440m  
  610.00000p    799.2168m      1.0431m  
  620.00000p    799.2163m      1.0421m  
  630.00000p    799.2157m      1.0412m  
  640.00000p    799.2152m      1.0403m  
  650.00000p    799.2146m      1.0394m  
  660.00000p    799.2141m      1.0384m  
  670.00000p    799.2135m      1.0375m  
  680.00000p    799.2130m      1.0366m  
  690.00000p    799.2124m      1.0357m  
  700.00000p    799.2119m      1.0348m  
  710.00000p    799.2113m      1.0338m  
  720.00000p    799.2107m      1.0329m  
  730.00000p    799.2102m      1.0320m  
  740.00000p    799.2096m      1.0311m  
  750.00000p    799.2091m      1.0301m  
  760.00000p    799.2085m      1.0292m  
  770.00000p    799.2080m      1.0283m  
  780.00000p    799.2074m      1.0274m  
  790.00000p    799.2069m      1.0265m  
  800.00000p    799.2063m      1.0255m  
  810.00000p    799.2058m      1.0246m  
  820.00000p    799.2052m      1.0237m  
  830.00000p    799.2047m      1.0228m  
  840.00000p    799.2052m      1.0237m  
  850.00000p    799.2063m      1.0254m  
  860.00000p    799.2073m      1.0271m  
  870.00000p    799.2083m      1.0288m  
  880.00000p    799.2093m      1.0305m  
  890.00000p    799.2104m      1.0322m  
  900.00000p    799.2114m      1.0339m  
  910.00000p    799.2124m      1.0356m  
  920.00000p    799.2134m      1.0373m  
  930.00000p    799.2145m      1.0390m  
  940.00000p    799.2155m      1.0407m  
  950.00000p    799.2165m      1.0424m  
  960.00000p    799.2175m      1.0441m  
  970.00000p    799.2185m      1.0457m  
  980.00000p    799.2196m      1.0474m  
  990.00000p    799.2206m      1.0491m  
    1.00000n    799.2216m      1.0508m  
    1.01000n    799.2226m      1.0525m  
    1.02000n    799.2237m      1.0542m  
    1.03000n    799.2247m      1.0559m  
    1.04000n    799.2257m      1.0576m  
    1.05000n    799.2267m      1.0593m  
    1.06000n    784.5368m    852.9770u  
    1.07000n    726.4877m      3.1525m  
    1.08000n    284.3070m    334.1836m  
    1.09000n     24.7636m    797.8876m  
    1.10000n      4.1338m    799.2532m  
    1.11000n      1.0200m    799.2086m  
    1.12000n      1.0229m    799.1908m  
    1.13000n      1.0241m    799.2197m  
    1.14000n      1.0224m    799.2022m  
    1.15000n      1.0206m    799.1846m  
    1.16000n      1.0188m    799.1671m  
    1.17000n      1.0196m    799.1737m  
    1.18000n      1.0204m    799.1804m  
    1.19000n      1.0211m    799.1871m  
    1.20000n      1.0219m    799.1938m  
    1.21000n      1.0227m    799.2005m  
    1.22000n      1.0234m    799.2072m  
    1.23000n      1.0242m    799.2138m  
    1.24000n      1.0250m    799.2205m  
    1.25000n      1.0254m    799.2238m  
    1.26000n      1.0250m    799.2206m  
    1.27000n      1.0246m    799.2173m  
    1.28000n      1.0242m    799.2141m  
    1.29000n      1.0238m    799.2109m  
    1.30000n      1.0234m    799.2076m  
    1.31000n      1.0230m    799.2044m  
    1.32000n      1.0226m    799.2012m  
    1.33000n      1.0222m    799.1979m  
    1.34000n      1.0218m    799.1947m  
    1.35000n      1.0214m    799.1914m  
    1.36000n      1.0210m    799.1882m  
    1.37000n      1.0207m    799.1850m  
    1.38000n      1.0203m    799.1817m  
    1.39000n      1.0199m    799.1785m  
    1.40000n      1.0195m    799.1753m  
    1.41000n      1.0191m    799.1720m  
    1.42000n      1.0187m    799.1688m  
    1.43000n      1.0187m    799.1691m  
    1.44000n      1.0189m    799.1706m  
    1.45000n      1.0191m    799.1720m  
    1.46000n      1.0193m    799.1735m  
    1.47000n      1.0195m    799.1750m  
    1.48000n      1.0196m    799.1764m  
    1.49000n      1.0198m    799.1779m  
    1.50000n      1.0200m    799.1794m  
    1.51000n      1.0202m    799.1808m  
    1.52000n      1.0204m    799.1823m  
    1.53000n      1.0205m    799.1838m  
    1.54000n      1.0207m    799.1852m  
    1.55000n      1.0209m    799.1867m  
    1.56000n      1.0211m    799.1882m  
    1.57000n      1.0213m    799.1896m  
    1.58000n      1.0215m    799.1911m  
    1.59000n      1.0216m    799.1926m  
    1.60000n      1.0218m    799.1940m  
    1.61000n      1.0220m    799.1955m  
    1.62000n      1.0222m    799.1969m  
    1.63000n      1.0224m    799.1984m  
    1.64000n      1.0226m    799.1999m  
    1.65000n      1.0227m    799.2013m  
    1.66000n      1.0229m    799.2028m  
    1.67000n      1.0231m    799.2043m  
    1.68000n      1.0233m    799.2057m  
    1.69000n      1.0235m    799.2072m  
    1.70000n      1.0236m    799.2087m  
    1.71000n      1.0238m    799.2101m  
    1.72000n      1.0240m    799.2116m  
    1.73000n      1.0242m    799.2131m  
    1.74000n      1.0244m    799.2145m  
    1.75000n      1.0246m    799.2160m  
    1.76000n      1.0247m    799.2175m  
    1.77000n      1.0249m    799.2189m  
    1.78000n      1.0251m    799.2204m  
    1.79000n      1.0253m    799.2219m  
    1.80000n      1.0255m    799.2233m  
    1.81000n      1.0255m    799.2238m  
    1.82000n      1.0252m    799.2209m  
    1.83000n      1.0248m    799.2180m  
    1.84000n      1.0244m    799.2151m  
    1.85000n      1.0240m    799.2122m  
    1.86000n      1.0237m    799.2092m  
    1.87000n      1.0233m    799.2063m  
    1.88000n      1.0229m    799.2034m  
    1.89000n      1.0226m    799.2005m  
    1.90000n      1.0222m    799.1976m  
    1.91000n      1.0218m    799.1947m  
    1.92000n      1.0215m    799.1917m  
    1.93000n      1.0211m    799.1888m  
    1.94000n      1.0207m    799.1859m  
    1.95000n      1.0203m    799.1830m  
    1.96000n      1.0200m    799.1801m  
    1.97000n      1.0196m    799.1771m  
    1.98000n      1.0192m    799.1742m  
    1.99000n      1.0189m    799.1713m  
    2.00000n      1.0185m    799.1684m  
    2.01000n     16.2842m    799.5086m  
    2.02000n     64.0826m    798.0953m  
    2.03000n    460.0002m    541.6406m  
    2.04000n    775.3333m      3.0679m  
    2.05000n    796.0124m      1.5100m  
    2.06000n    799.2180m      1.0392m  
    2.07000n    799.2121m      1.0445m  
    2.08000n    799.2124m      1.0477m  
    2.09000n    799.2147m      1.0446m  
    2.10000n    799.2149m      1.0395m  
    2.11000n    799.2156m      1.0410m  
    2.12000n    799.2156m      1.0409m  
    2.13000n    799.2156m      1.0409m  
    2.14000n    799.2156m      1.0410m  
    2.15000n    799.2156m      1.0410m  
    2.16000n    799.2156m      1.0409m  
    2.17000n    799.2156m      1.0409m  
    2.18000n    799.2156m      1.0409m  
    2.19000n    799.2156m      1.0409m  
    2.20000n    799.2156m      1.0409m  
    2.21000n    799.2156m      1.0409m  
    2.22000n    799.2156m      1.0409m  
    2.23000n    799.2156m      1.0409m  
    2.24000n    799.2156m      1.0409m  
    2.25000n    799.2156m      1.0409m  
    2.26000n    799.2156m      1.0409m  
    2.27000n    799.2156m      1.0409m  
    2.28000n    799.2156m      1.0410m  
    2.29000n    799.2156m      1.0410m  
    2.30000n    799.2156m      1.0410m  
    2.31000n    799.2156m      1.0410m  
    2.32000n    799.2156m      1.0410m  
    2.33000n    799.2156m      1.0410m  
    2.34000n    799.2156m      1.0410m  
    2.35000n    799.2156m      1.0410m  
    2.36000n    799.2156m      1.0410m  
    2.37000n    799.2156m      1.0410m  
    2.38000n    799.2156m      1.0410m  
    2.39000n    799.2156m      1.0409m  
    2.40000n    799.2156m      1.0409m  
    2.41000n    799.2156m      1.0409m  
    2.42000n    799.2156m      1.0409m  
    2.43000n    799.2156m      1.0409m  
    2.44000n    799.2156m      1.0409m  
    2.45000n    799.2156m      1.0409m  
    2.46000n    799.2156m      1.0409m  
    2.47000n    799.2156m      1.0409m  
    2.48000n    799.2156m      1.0409m  
    2.49000n    799.2156m      1.0409m  
    2.50000n    799.2156m      1.0409m  
    2.51000n    799.2156m      1.0409m  
    2.52000n    799.2156m      1.0409m  
    2.53000n    799.2156m      1.0409m  
    2.54000n    799.2156m      1.0409m  
    2.55000n    799.2156m      1.0409m  
    2.56000n    799.2156m      1.0409m  
    2.57000n    799.2156m      1.0409m  
    2.58000n    799.2156m      1.0409m  
    2.59000n    799.2156m      1.0409m  
    2.60000n    799.2156m      1.0409m  
    2.61000n    799.2156m      1.0409m  
    2.62000n    799.2156m      1.0409m  
    2.63000n    799.2156m      1.0409m  
    2.64000n    799.2156m      1.0409m  
    2.65000n    799.2156m      1.0409m  
    2.66000n    799.2156m      1.0409m  
    2.67000n    799.2156m      1.0409m  
    2.68000n    799.2156m      1.0409m  
    2.69000n    799.2156m      1.0409m  
    2.70000n    799.2156m      1.0409m  
    2.71000n    799.2156m      1.0409m  
    2.72000n    799.2156m      1.0409m  
    2.73000n    799.2156m      1.0409m  
    2.74000n    799.2156m      1.0409m  
    2.75000n    799.2156m      1.0409m  
    2.76000n    799.2156m      1.0409m  
    2.77000n    799.2156m      1.0409m  
    2.78000n    799.2156m      1.0409m  
    2.79000n    799.2156m      1.0409m  
    2.80000n    799.2156m      1.0409m  
    2.81000n    799.2156m      1.0409m  
    2.82000n    799.2156m      1.0409m  
    2.83000n    799.2156m      1.0410m  
    2.84000n    799.2156m      1.0410m  
    2.85000n    799.2156m      1.0410m  
    2.86000n    799.2156m      1.0410m  
    2.87000n    799.2156m      1.0410m  
    2.88000n    799.2156m      1.0410m  
    2.89000n    799.2156m      1.0410m  
    2.90000n    799.2156m      1.0410m  
    2.91000n    799.2156m      1.0410m  
    2.92000n    799.2156m      1.0410m  
    2.93000n    799.2156m      1.0410m  
    2.94000n    799.2156m      1.0410m  
    2.95000n    799.2156m      1.0410m  
    2.96000n    799.2156m      1.0410m  
    2.97000n    799.2156m      1.0410m  
    2.98000n    799.2156m      1.0410m  
    2.99000n    799.2156m      1.0409m  
    3.00000n    799.2156m      1.0409m  
    3.01000n    799.2156m      1.0409m  
    3.02000n    799.2156m      1.0409m  
    3.03000n    799.2156m      1.0409m  
    3.04000n    799.2156m      1.0409m  
    3.05000n    799.2156m      1.0409m  
    3.06000n    786.4691m    702.3574u  
    3.07000n    651.4009m     16.9643m  
    3.08000n    299.1812m    468.1172m  
    3.09000n     24.6493m    797.5720m  
    3.10000n      4.0569m    799.1402m  
    3.11000n      1.0173m    799.1800m  
    3.12000n      1.0316m    799.2350m  
    3.13000n      1.0244m    799.2072m  
    3.14000n      1.0165m    799.1763m  
    3.15000n      1.0132m    799.1629m  
    3.16000n      1.0166m    799.1754m  
    3.17000n      1.0200m    799.1880m  
    3.18000n      1.0234m    799.2005m  
    3.19000n      1.0268m    799.2130m  
    3.20000n      1.0302m    799.2255m  
    3.21000n      1.0318m    799.2316m  
    3.22000n      1.0302m    799.2259m  
    3.23000n      1.0286m    799.2201m  
    3.24000n      1.0270m    799.2143m  
    3.25000n      1.0254m    799.2085m  
    3.26000n      1.0238m    799.2027m  
    3.27000n      1.0222m    799.1970m  
    3.28000n      1.0206m    799.1912m  
    3.29000n      1.0190m    799.1854m  
    3.30000n      1.0173m    799.1796m  
    3.31000n      1.0157m    799.1739m  
    3.32000n      1.0141m    799.1681m  
    3.33000n      1.0125m    799.1623m  
    3.34000n      1.0121m    799.1608m  
    3.35000n      1.0128m    799.1634m  
    3.36000n      1.0136m    799.1661m  
    3.37000n      1.0143m    799.1687m  
    3.38000n      1.0151m    799.1713m  
    3.39000n      1.0158m    799.1740m  
    3.40000n      1.0166m    799.1766m  
    3.41000n      1.0173m    799.1793m  
    3.42000n      1.0181m    799.1819m  
    3.43000n      1.0188m    799.1846m  
    3.44000n      1.0196m    799.1872m  
    3.45000n      1.0203m    799.1899m  
    3.46000n      1.0210m    799.1925m  
    3.47000n      1.0218m    799.1951m  
    3.48000n      1.0225m    799.1978m  
    3.49000n      1.0233m    799.2004m  
    3.50000n      1.0240m    799.2031m  
    3.51000n      1.0248m    799.2057m  
    3.52000n      1.0255m    799.2084m  
    3.53000n      1.0263m    799.2110m  
    3.54000n      1.0270m    799.2136m  
    3.55000n      1.0278m    799.2163m  
    3.56000n      1.0285m    799.2189m  
    3.57000n      1.0293m    799.2216m  
    3.58000n      1.0300m    799.2242m  
    3.59000n      1.0307m    799.2269m  
    3.60000n      1.0315m    799.2295m  
    3.61000n      1.0322m    799.2321m  
    3.62000n      1.0321m    799.2316m  
    3.63000n      1.0315m    799.2297m  
    3.64000n      1.0310m    799.2278m  
    3.65000n      1.0305m    799.2259m  
    3.66000n      1.0299m    799.2241m  
    3.67000n      1.0294m    799.2222m  
    3.68000n      1.0289m    799.2203m  
    3.69000n      1.0283m    799.2184m  
    3.70000n      1.0278m    799.2165m  
    3.71000n      1.0273m    799.2146m  
    3.72000n      1.0267m    799.2127m  
    3.73000n      1.0262m    799.2108m  
    3.74000n      1.0256m    799.2089m  
    3.75000n      1.0251m    799.2071m  
    3.76000n      1.0246m    799.2052m  
    3.77000n      1.0240m    799.2033m  
    3.78000n      1.0235m    799.2014m  
    3.79000n      1.0230m    799.1995m  
    3.80000n      1.0224m    799.1976m  
    3.81000n      1.0219m    799.1957m  
    3.82000n      1.0214m    799.1938m  
    3.83000n      1.0208m    799.1919m  
    3.84000n      1.0203m    799.1901m  
    3.85000n      1.0197m    799.1882m  
    3.86000n      1.0192m    799.1863m  
    3.87000n      1.0187m    799.1844m  
    3.88000n      1.0181m    799.1825m  
    3.89000n      1.0176m    799.1806m  
    3.90000n      1.0171m    799.1787m  
    3.91000n      1.0165m    799.1768m  
    3.92000n      1.0160m    799.1749m  
    3.93000n      1.0155m    799.1731m  
    3.94000n      1.0149m    799.1712m  
    3.95000n      1.0144m    799.1693m  
    3.96000n      1.0138m    799.1674m  
    3.97000n      1.0133m    799.1655m  
    3.98000n      1.0128m    799.1636m  
    3.99000n      1.0122m    799.1617m  
    4.00000n      1.0117m    799.1598m  
    4.01000n     17.6220m    799.3617m  
    4.02000n     65.5635m    797.7264m  
    4.03000n    453.3657m    535.6744m  
    4.04000n    806.0826m     -1.0438   
    4.05000n    838.7803m    -37.3770m  
    4.06000n    799.2151m      1.0409m  
    4.07000n    799.2155m      1.0409m  
    4.08000n    799.2156m      1.0409m  
    4.09000n    799.2156m      1.0409m  
    4.10000n    799.2156m      1.0409m  
    4.11000n    799.2156m      1.0409m  
    4.12000n    799.2156m      1.0409m  
    4.13000n    799.2156m      1.0409m  
    4.14000n    799.2156m      1.0409m  
    4.15000n    799.2156m      1.0409m  
    4.16000n    799.2156m      1.0409m  
    4.17000n    799.2156m      1.0409m  
    4.18000n    799.2156m      1.0409m  
    4.19000n    799.2156m      1.0409m  
    4.20000n    799.2156m      1.0409m  
    4.21000n    799.2156m      1.0409m  
    4.22000n    799.2156m      1.0409m  
    4.23000n    799.2156m      1.0409m  
    4.24000n    799.2156m      1.0409m  
    4.25000n    799.2156m      1.0409m  
    4.26000n    799.2156m      1.0409m  
    4.27000n    799.2156m      1.0409m  
    4.28000n    799.2156m      1.0409m  
    4.29000n    799.2156m      1.0409m  
    4.30000n    799.2156m      1.0409m  
    4.31000n    799.2156m      1.0409m  
    4.32000n    799.2156m      1.0409m  
    4.33000n    799.2156m      1.0409m  
    4.34000n    799.2156m      1.0409m  
    4.35000n    799.2156m      1.0409m  
    4.36000n    799.2156m      1.0409m  
    4.37000n    799.2156m      1.0409m  
    4.38000n    799.2156m      1.0409m  
    4.39000n    799.2156m      1.0409m  
    4.40000n    799.2156m      1.0409m  
    4.41000n    799.2156m      1.0409m  
    4.42000n    799.2156m      1.0409m  
    4.43000n    799.2156m      1.0409m  
    4.44000n    799.2156m      1.0409m  
    4.45000n    799.2156m      1.0409m  
    4.46000n    799.2156m      1.0409m  
    4.47000n    799.2156m      1.0409m  
    4.48000n    799.2156m      1.0409m  
    4.49000n    799.2156m      1.0409m  
    4.50000n    799.2156m      1.0409m  
    4.51000n    799.2156m      1.0409m  
    4.52000n    799.2156m      1.0409m  
    4.53000n    799.2156m      1.0409m  
    4.54000n    799.2156m      1.0409m  
    4.55000n    799.2156m      1.0409m  
    4.56000n    799.2156m      1.0409m  
    4.57000n    799.2156m      1.0409m  
    4.58000n    799.2156m      1.0409m  
    4.59000n    799.2156m      1.0409m  
    4.60000n    799.2156m      1.0409m  
    4.61000n    799.2156m      1.0409m  
    4.62000n    799.2156m      1.0409m  
    4.63000n    799.2156m      1.0409m  
    4.64000n    799.2156m      1.0409m  
    4.65000n    799.2156m      1.0409m  
    4.66000n    799.2156m      1.0409m  
    4.67000n    799.2156m      1.0409m  
    4.68000n    799.2156m      1.0409m  
    4.69000n    799.2156m      1.0409m  
    4.70000n    799.2156m      1.0409m  
    4.71000n    799.2156m      1.0409m  
    4.72000n    799.2156m      1.0409m  
    4.73000n    799.2156m      1.0409m  
    4.74000n    799.2156m      1.0409m  
    4.75000n    799.2156m      1.0409m  
    4.76000n    799.2156m      1.0409m  
    4.77000n    799.2156m      1.0409m  
    4.78000n    799.2156m      1.0409m  
    4.79000n    799.2156m      1.0409m  
    4.80000n    799.2156m      1.0409m  
    4.81000n    799.2156m      1.0409m  
    4.82000n    799.2156m      1.0409m  
    4.83000n    799.2156m      1.0409m  
    4.84000n    799.2156m      1.0409m  
    4.85000n    799.2156m      1.0409m  
    4.86000n    799.2156m      1.0409m  
    4.87000n    799.2156m      1.0409m  
    4.88000n    799.2156m      1.0409m  
    4.89000n    799.2156m      1.0409m  
    4.90000n    799.2156m      1.0409m  
    4.91000n    799.2156m      1.0409m  
    4.92000n    799.2156m      1.0409m  
    4.93000n    799.2156m      1.0409m  
    4.94000n    799.2156m      1.0409m  
    4.95000n    799.2156m      1.0409m  
    4.96000n    799.2156m      1.0409m  
    4.97000n    799.2156m      1.0409m  
    4.98000n    799.2156m      1.0409m  
    4.99000n    799.2156m      1.0409m  
    5.00000n    799.2156m      1.0409m  
    5.01000n    799.2156m      1.0409m  
    5.02000n    799.2156m      1.0409m  
    5.03000n    799.2156m      1.0409m  
    5.04000n    799.2156m      1.0409m  
    5.05000n    799.2156m      1.0409m  
    5.06000n    784.5147m    854.8694u  
    5.07000n    726.3321m      3.1637m  
    5.08000n    284.2088m    334.1799m  
    5.09000n     24.7612m    797.8765m  
    5.10000n      4.1365m    799.2467m  
    5.11000n      1.0197m    799.2084m  
    5.12000n      1.0230m    799.1906m  
    5.13000n      1.0235m    799.2192m  
    5.14000n      1.0222m    799.2020m  
    5.15000n      1.0209m    799.1848m  
    5.16000n      1.0197m    799.1677m  
    5.17000n      1.0203m    799.1742m  
    5.18000n      1.0208m    799.1807m  
    5.19000n      1.0214m    799.1872m  
    5.20000n      1.0220m    799.1937m  
    5.21000n      1.0225m    799.2002m  
    5.22000n      1.0231m    799.2066m  
    5.23000n      1.0237m    799.2131m  
    5.24000n      1.0242m    799.2196m  
    5.25000n      1.0246m    799.2234m  
    5.26000n      1.0243m    799.2203m  
    5.27000n      1.0240m    799.2171m  
    5.28000n      1.0237m    799.2140m  
    5.29000n      1.0234m    799.2108m  
    5.30000n      1.0231m    799.2077m  
    5.31000n      1.0228m    799.2045m  
    5.32000n      1.0225m    799.2014m  
    5.33000n      1.0222m    799.1982m  
    5.34000n      1.0219m    799.1951m  
    5.35000n      1.0216m    799.1919m  
    5.36000n      1.0213m    799.1888m  
    5.37000n      1.0210m    799.1856m  
    5.38000n      1.0207m    799.1825m  
    5.39000n      1.0204m    799.1793m  
    5.40000n      1.0201m    799.1762m  
    5.41000n      1.0198m    799.1730m  
    5.42000n      1.0195m    799.1699m  
    5.43000n      1.0195m    799.1695m  
    5.44000n      1.0196m    799.1709m  
    5.45000n      1.0198m    799.1723m  
    5.46000n      1.0199m    799.1737m  
    5.47000n      1.0201m    799.1751m  
    5.48000n      1.0202m    799.1766m  
    5.49000n      1.0203m    799.1780m  
    5.50000n      1.0205m    799.1794m  
    5.51000n      1.0206m    799.1808m  
    5.52000n      1.0207m    799.1822m  
    5.53000n      1.0209m    799.1837m  
    5.54000n      1.0210m    799.1851m  
    5.55000n      1.0212m    799.1865m  
    5.56000n      1.0213m    799.1879m  
    5.57000n      1.0214m    799.1893m  
    5.58000n      1.0216m    799.1908m  
    5.59000n      1.0217m    799.1922m  
    5.60000n      1.0218m    799.1936m  
    5.61000n      1.0220m    799.1950m  
    5.62000n      1.0221m    799.1964m  
    5.63000n      1.0223m    799.1979m  
    5.64000n      1.0224m    799.1993m  
    5.65000n      1.0225m    799.2007m  
    5.66000n      1.0227m    799.2021m  
    5.67000n      1.0228m    799.2035m  
    5.68000n      1.0229m    799.2050m  
    5.69000n      1.0231m    799.2064m  
    5.70000n      1.0232m    799.2078m  
    5.71000n      1.0234m    799.2092m  
    5.72000n      1.0235m    799.2106m  
    5.73000n      1.0236m    799.2121m  
    5.74000n      1.0238m    799.2135m  
    5.75000n      1.0239m    799.2149m  
    5.76000n      1.0240m    799.2163m  
    5.77000n      1.0242m    799.2177m  
    5.78000n      1.0243m    799.2192m  
    5.79000n      1.0245m    799.2206m  
    5.80000n      1.0246m    799.2220m  
    5.81000n      1.0247m    799.2234m  
    5.82000n      1.0246m    799.2218m  
    5.83000n      1.0243m    799.2189m  
    5.84000n      1.0240m    799.2160m  
    5.85000n      1.0237m    799.2130m  
    5.86000n      1.0234m    799.2101m  
    5.87000n      1.0231m    799.2072m  
    5.88000n      1.0228m    799.2042m  
    5.89000n      1.0225m    799.2013m  
    5.90000n      1.0222m    799.1984m  
    5.91000n      1.0219m    799.1954m  
    5.92000n      1.0216m    799.1925m  
    5.93000n      1.0214m    799.1896m  
    5.94000n      1.0211m    799.1866m  
    5.95000n      1.0208m    799.1837m  
    5.96000n      1.0205m    799.1808m  
    5.97000n      1.0202m    799.1778m  
    5.98000n      1.0199m    799.1749m  
    5.99000n      1.0196m    799.1719m  
    6.00000n      1.0193m    799.1690m  
    6.01000n     16.2333m    799.5138m  
    6.02000n     63.8131m    798.1092m  
    6.03000n    459.2569m    541.8856m  
    6.04000n    775.4381m      3.2843m  
    6.05000n    796.0116m      1.5221m  
    6.06000n    799.2168m      1.0407m  
    6.07000n    799.2212m      1.0322m  
    6.08000n    799.2130m      1.0458m  
    6.09000n    799.2156m      1.0409m  
    6.10000n    799.2156m      1.0410m  
    6.11000n    799.2156m      1.0409m  
    6.12000n    799.2156m      1.0409m  
    6.13000n    799.2156m      1.0409m  
    6.14000n    799.2156m      1.0409m  
    6.15000n    799.2156m      1.0409m  
    6.16000n    799.2156m      1.0409m  
    6.17000n    799.2156m      1.0409m  
    6.18000n    799.2156m      1.0409m  
    6.19000n    799.2156m      1.0409m  
    6.20000n    799.2156m      1.0409m  
    6.21000n    799.2156m      1.0409m  
    6.22000n    799.2156m      1.0409m  
    6.23000n    799.2156m      1.0409m  
    6.24000n    799.2156m      1.0409m  
    6.25000n    799.2156m      1.0409m  
    6.26000n    799.2156m      1.0409m  
    6.27000n    799.2156m      1.0409m  
    6.28000n    799.2156m      1.0409m  
    6.29000n    799.2156m      1.0409m  
    6.30000n    799.2156m      1.0409m  
    6.31000n    799.2156m      1.0409m  
    6.32000n    799.2156m      1.0409m  
    6.33000n    799.2156m      1.0409m  
    6.34000n    799.2156m      1.0409m  
    6.35000n    799.2156m      1.0409m  
    6.36000n    799.2156m      1.0409m  
    6.37000n    799.2156m      1.0409m  
    6.38000n    799.2156m      1.0409m  
    6.39000n    799.2156m      1.0409m  
    6.40000n    799.2156m      1.0409m  
    6.41000n    799.2156m      1.0409m  
    6.42000n    799.2156m      1.0409m  
    6.43000n    799.2156m      1.0409m  
    6.44000n    799.2156m      1.0409m  
    6.45000n    799.2156m      1.0409m  
    6.46000n    799.2156m      1.0409m  
    6.47000n    799.2156m      1.0409m  
    6.48000n    799.2156m      1.0409m  
    6.49000n    799.2156m      1.0409m  
    6.50000n    799.2156m      1.0409m  
    6.51000n    799.2156m      1.0409m  
    6.52000n    799.2156m      1.0409m  
    6.53000n    799.2156m      1.0409m  
    6.54000n    799.2156m      1.0409m  
    6.55000n    799.2156m      1.0409m  
    6.56000n    799.2156m      1.0409m  
    6.57000n    799.2156m      1.0409m  
    6.58000n    799.2156m      1.0409m  
    6.59000n    799.2156m      1.0409m  
    6.60000n    799.2156m      1.0409m  
    6.61000n    799.2156m      1.0409m  
    6.62000n    799.2156m      1.0409m  
    6.63000n    799.2156m      1.0409m  
    6.64000n    799.2156m      1.0409m  
    6.65000n    799.2156m      1.0409m  
    6.66000n    799.2156m      1.0409m  
    6.67000n    799.2156m      1.0409m  
    6.68000n    799.2156m      1.0409m  
    6.69000n    799.2156m      1.0409m  
    6.70000n    799.2156m      1.0409m  
    6.71000n    799.2156m      1.0409m  
    6.72000n    799.2156m      1.0409m  
    6.73000n    799.2156m      1.0409m  
    6.74000n    799.2156m      1.0409m  
    6.75000n    799.2156m      1.0409m  
    6.76000n    799.2156m      1.0409m  
    6.77000n    799.2156m      1.0409m  
    6.78000n    799.2156m      1.0409m  
    6.79000n    799.2156m      1.0409m  
    6.80000n    799.2156m      1.0409m  
    6.81000n    799.2156m      1.0409m  
    6.82000n    799.2156m      1.0409m  
    6.83000n    799.2156m      1.0409m  
    6.84000n    799.2156m      1.0409m  
    6.85000n    799.2156m      1.0409m  
    6.86000n    799.2156m      1.0409m  
    6.87000n    799.2156m      1.0409m  
    6.88000n    799.2156m      1.0409m  
    6.89000n    799.2156m      1.0409m  
    6.90000n    799.2156m      1.0409m  
    6.91000n    799.2156m      1.0409m  
    6.92000n    799.2156m      1.0409m  
    6.93000n    799.2156m      1.0409m  
    6.94000n    799.2156m      1.0409m  
    6.95000n    799.2156m      1.0409m  
    6.96000n    799.2156m      1.0409m  
    6.97000n    799.2156m      1.0409m  
    6.98000n    799.2156m      1.0409m  
    6.99000n    799.2156m      1.0409m  
    7.00000n    799.2156m      1.0409m  
    7.01000n    799.2156m      1.0409m  
    7.02000n    799.2156m      1.0409m  
    7.03000n    799.2156m      1.0409m  
    7.04000n    799.2156m      1.0409m  
    7.05000n    799.2156m      1.0409m  
    7.06000n    782.6307m      1.0310m  
    7.07000n    713.8174m      5.0570m  
    7.08000n    291.4127m    343.2072m  
    7.09000n   -366.5084m      1.7413   
    7.10000n     -3.0569m    570.5297m  
    7.11000n   -753.9412m      2.1640   
    7.12000n     -1.3616       2.3429   
    7.13000n     -1.2739       1.6460   
    7.14000n   -881.3383m      1.0596   
    7.15000n   -304.7740m    828.2187m  
    7.16000n      1.3628m    798.8312m  
    7.17000n      1.0204m    799.1908m  
    7.18000n      1.0181m    799.2001m  
    7.19000n      1.0588m    799.1876m  
    7.20000n      1.0291m    799.1936m  
    7.21000n    999.3763u    799.1996m  
    7.22000n    985.7380u    799.2026m  
    7.23000n    999.2515u    799.2005m  
    7.24000n      1.0128m    799.1984m  
    7.25000n      1.0263m    799.1963m  
    7.26000n      1.0398m    799.1941m  
    7.27000n      1.0533m    799.1920m  
    7.28000n      1.0596m    799.1910m  
    7.29000n      1.0531m    799.1918m  
    7.30000n      1.0465m    799.1927m  
    7.31000n      1.0399m    799.1936m  
    7.32000n      1.0333m    799.1945m  
    7.33000n      1.0267m    799.1954m  
    7.34000n      1.0201m    799.1963m  
    7.35000n      1.0135m    799.1972m  
    7.36000n      1.0069m    799.1980m  
    7.37000n      1.0003m    799.1989m  
    7.38000n    993.6760u    799.1998m  
    7.39000n    987.0787u    799.2007m  
    7.40000n    984.2355u    799.2011m  
    7.41000n    988.0494u    799.2006m  
    7.42000n    991.8633u    799.2002m  
    7.43000n    995.6771u    799.1997m  
    7.44000n    999.4910u    799.1992m  
    7.45000n      1.0033m    799.1988m  
    7.46000n      1.0071m    799.1983m  
    7.47000n      1.0109m    799.1978m  
    7.48000n      1.0147m    799.1974m  
    7.49000n      1.0186m    799.1969m  
    7.50000n      1.0224m    799.1964m  
    7.51000n      1.0262m    799.1960m  
    7.52000n      1.0300m    799.1955m  
    7.53000n      1.0338m    799.1950m  
    7.54000n      1.0376m    799.1946m  
    7.55000n      1.0414m    799.1941m  
    7.56000n      1.0453m    799.1936m  
    7.57000n      1.0491m    799.1932m  
    7.58000n      1.0529m    799.1927m  
    7.59000n      1.0567m    799.1922m  
    7.60000n      1.0605m    799.1918m  
    7.61000n      1.0589m    799.1920m  
    7.62000n      1.0566m    799.1922m  
    7.63000n      1.0543m    799.1925m  
    7.64000n      1.0521m    799.1928m  
    7.65000n      1.0498m    799.1930m  
    7.66000n      1.0475m    799.1933m  
    7.67000n      1.0453m    799.1935m  
    7.68000n      1.0430m    799.1938m  
    7.69000n      1.0407m    799.1941m  
    7.70000n      1.0385m    799.1943m  
    7.71000n      1.0362m    799.1946m  
    7.72000n      1.0340m    799.1948m  
    7.73000n      1.0317m    799.1951m  
    7.74000n      1.0294m    799.1954m  
    7.75000n      1.0272m    799.1956m  
    7.76000n      1.0249m    799.1959m  
    7.77000n      1.0226m    799.1961m  
    7.78000n      1.0204m    799.1964m  
    7.79000n      1.0181m    799.1967m  
    7.80000n      1.0158m    799.1969m  
    7.81000n      1.0136m    799.1972m  
    7.82000n      1.0113m    799.1974m  
    7.83000n      1.0090m    799.1977m  
    7.84000n      1.0068m    799.1980m  
    7.85000n      1.0045m    799.1982m  
    7.86000n      1.0022m    799.1985m  
    7.87000n    999.9840u    799.1987m  
    7.88000n    997.7193u    799.1990m  
    7.89000n    995.4545u    799.1993m  
    7.90000n    993.1898u    799.1995m  
    7.91000n    990.9251u    799.1998m  
    7.92000n    988.6604u    799.2000m  
    7.93000n    986.3957u    799.2003m  
    7.94000n    984.1310u    799.2006m  
    7.95000n    993.0681u    799.1997m  
    7.96000n      1.0063m    799.1984m  
    7.97000n      1.0196m    799.1972m  
    7.98000n      1.0328m    799.1959m  
    7.99000n      1.0460m    799.1946m  
    8.00000n      1.0593m    799.1933m  
y
x

        time    voltage      voltage    
                 outin_10     outin_20  
    0.          799.1963m      1.0414m  
   10.00000p    799.4153m      1.0417m  
   20.00000p    797.4832m      1.0126m  
   30.00000p    552.2159m     70.4219m  
   40.00000p     -1.1133       2.7571   
   50.00000p    -39.2811m    807.2843m  
   60.00000p      1.0193m    799.1866m  
   70.00000p      1.0506m    799.2020m  
   80.00000p      1.0235m    799.1828m  
   90.00000p      1.0300m    799.1878m  
  100.00000p      1.0386m    799.1944m  
  110.00000p      1.0473m    799.2010m  
  120.00000p      1.0559m    799.2076m  
  130.00000p      1.0575m    799.2087m  
  140.00000p      1.0537m    799.2058m  
  150.00000p      1.0499m    799.2028m  
  160.00000p      1.0461m    799.1999m  
  170.00000p      1.0423m    799.1969m  
  180.00000p      1.0385m    799.1940m  
  190.00000p      1.0348m    799.1910m  
  200.00000p      1.0310m    799.1881m  
  210.00000p      1.0272m    799.1851m  
  220.00000p      1.0234m    799.1822m  
  230.00000p      1.0237m    799.1824m  
  240.00000p      1.0255m    799.1838m  
  250.00000p      1.0272m    799.1852m  
  260.00000p      1.0290m    799.1866m  
  270.00000p      1.0307m    799.1880m  
  280.00000p      1.0325m    799.1894m  
  290.00000p      1.0343m    799.1907m  
  300.00000p      1.0360m    799.1921m  
  310.00000p      1.0378m    799.1935m  
  320.00000p      1.0395m    799.1949m  
  330.00000p      1.0413m    799.1963m  
  340.00000p      1.0431m    799.1977m  
  350.00000p      1.0448m    799.1990m  
  360.00000p      1.0466m    799.2004m  
  370.00000p      1.0483m    799.2018m  
  380.00000p      1.0501m    799.2032m  
  390.00000p      1.0519m    799.2046m  
  400.00000p      1.0536m    799.2060m  
  410.00000p      1.0554m    799.2073m  
  420.00000p      1.0572m    799.2087m  
  430.00000p      1.0589m    799.2101m  
  440.00000p      1.0587m    799.2100m  
  450.00000p      1.0578m    799.2093m  
  460.00000p      1.0569m    799.2085m  
  470.00000p      1.0560m    799.2078m  
  480.00000p      1.0550m    799.2071m  
  490.00000p      1.0541m    799.2063m  
  500.00000p      1.0532m    799.2056m  
  510.00000p      1.0523m    799.2049m  
  520.00000p      1.0514m    799.2042m  
  530.00000p      1.0504m    799.2034m  
  540.00000p      1.0495m    799.2027m  
  550.00000p      1.0486m    799.2020m  
  560.00000p      1.0477m    799.2012m  
  570.00000p      1.0467m    799.2005m  
  580.00000p      1.0458m    799.1998m  
  590.00000p      1.0449m    799.1991m  
  600.00000p      1.0440m    799.1983m  
  610.00000p      1.0431m    799.1976m  
  620.00000p      1.0421m    799.1969m  
  630.00000p      1.0412m    799.1961m  
  640.00000p      1.0403m    799.1954m  
  650.00000p      1.0394m    799.1947m  
  660.00000p      1.0384m    799.1940m  
  670.00000p      1.0375m    799.1932m  
  680.00000p      1.0366m    799.1925m  
  690.00000p      1.0357m    799.1918m  
  700.00000p      1.0348m    799.1910m  
  710.00000p      1.0338m    799.1903m  
  720.00000p      1.0329m    799.1896m  
  730.00000p      1.0320m    799.1889m  
  740.00000p      1.0311m    799.1881m  
  750.00000p      1.0301m    799.1874m  
  760.00000p      1.0292m    799.1867m  
  770.00000p      1.0283m    799.1859m  
  780.00000p      1.0274m    799.1852m  
  790.00000p      1.0265m    799.1845m  
  800.00000p      1.0255m    799.1838m  
  810.00000p      1.0246m    799.1830m  
  820.00000p      1.0237m    799.1823m  
  830.00000p      1.0228m    799.1816m  
  840.00000p      1.0237m    799.1823m  
  850.00000p      1.0254m    799.1837m  
  860.00000p      1.0271m    799.1850m  
  870.00000p      1.0288m    799.1864m  
  880.00000p      1.0305m    799.1877m  
  890.00000p      1.0322m    799.1891m  
  900.00000p      1.0339m    799.1904m  
  910.00000p      1.0356m    799.1917m  
  920.00000p      1.0373m    799.1931m  
  930.00000p      1.0390m    799.1944m  
  940.00000p      1.0407m    799.1958m  
  950.00000p      1.0424m    799.1971m  
  960.00000p      1.0441m    799.1985m  
  970.00000p      1.0457m    799.1998m  
  980.00000p      1.0474m    799.2011m  
  990.00000p      1.0491m    799.2025m  
    1.00000n      1.0508m    799.2038m  
    1.01000n      1.0525m    799.2052m  
    1.02000n      1.0542m    799.2065m  
    1.03000n      1.0559m    799.2079m  
    1.04000n      1.0576m    799.2092m  
    1.05000n      1.0593m    799.2105m  
    1.06000n    852.9770u    799.1890m  
    1.07000n      3.1525m    799.2466m  
    1.08000n    334.1836m    736.9976m  
    1.09000n    797.8876m      1.4935m  
    1.10000n    799.2532m      1.5171m  
    1.11000n    799.2086m      1.0424m  
    1.12000n    799.1908m      1.0408m  
    1.13000n    799.2197m      1.0507m  
    1.14000n    799.2022m      1.0435m  
    1.15000n    799.1846m      1.0362m  
    1.16000n    799.1671m      1.0289m  
    1.17000n    799.1737m      1.0318m  
    1.18000n    799.1804m      1.0347m  
    1.19000n    799.1871m      1.0376m  
    1.20000n    799.1938m      1.0405m  
    1.21000n    799.2005m      1.0433m  
    1.22000n    799.2072m      1.0462m  
    1.23000n    799.2138m      1.0491m  
    1.24000n    799.2205m      1.0520m  
    1.25000n    799.2238m      1.0534m  
    1.26000n    799.2206m      1.0520m  
    1.27000n    799.2173m      1.0506m  
    1.28000n    799.2141m      1.0492m  
    1.29000n    799.2109m      1.0477m  
    1.30000n    799.2076m      1.0463m  
    1.31000n    799.2044m      1.0449m  
    1.32000n    799.2012m      1.0435m  
    1.33000n    799.1979m      1.0420m  
    1.34000n    799.1947m      1.0406m  
    1.35000n    799.1914m      1.0392m  
    1.36000n    799.1882m      1.0378m  
    1.37000n    799.1850m      1.0364m  
    1.38000n    799.1817m      1.0349m  
    1.39000n    799.1785m      1.0335m  
    1.40000n    799.1753m      1.0321m  
    1.41000n    799.1720m      1.0307m  
    1.42000n    799.1688m      1.0293m  
    1.43000n    799.1691m      1.0294m  
    1.44000n    799.1706m      1.0300m  
    1.45000n    799.1720m      1.0307m  
    1.46000n    799.1735m      1.0313m  
    1.47000n    799.1750m      1.0320m  
    1.48000n    799.1764m      1.0326m  
    1.49000n    799.1779m      1.0333m  
    1.50000n    799.1794m      1.0339m  
    1.51000n    799.1808m      1.0346m  
    1.52000n    799.1823m      1.0352m  
    1.53000n    799.1838m      1.0359m  
    1.54000n    799.1852m      1.0365m  
    1.55000n    799.1867m      1.0372m  
    1.56000n    799.1882m      1.0378m  
    1.57000n    799.1896m      1.0385m  
    1.58000n    799.1911m      1.0391m  
    1.59000n    799.1926m      1.0398m  
    1.60000n    799.1940m      1.0404m  
    1.61000n    799.1955m      1.0411m  
    1.62000n    799.1969m      1.0417m  
    1.63000n    799.1984m      1.0424m  
    1.64000n    799.1999m      1.0430m  
    1.65000n    799.2013m      1.0437m  
    1.66000n    799.2028m      1.0443m  
    1.67000n    799.2043m      1.0450m  
    1.68000n    799.2057m      1.0456m  
    1.69000n    799.2072m      1.0463m  
    1.70000n    799.2087m      1.0469m  
    1.71000n    799.2101m      1.0476m  
    1.72000n    799.2116m      1.0482m  
    1.73000n    799.2131m      1.0489m  
    1.74000n    799.2145m      1.0495m  
    1.75000n    799.2160m      1.0502m  
    1.76000n    799.2175m      1.0508m  
    1.77000n    799.2189m      1.0515m  
    1.78000n    799.2204m      1.0521m  
    1.79000n    799.2219m      1.0528m  
    1.80000n    799.2233m      1.0534m  
    1.81000n    799.2238m      1.0536m  
    1.82000n    799.2209m      1.0523m  
    1.83000n    799.2180m      1.0510m  
    1.84000n    799.2151m      1.0497m  
    1.85000n    799.2122m      1.0484m  
    1.86000n    799.2092m      1.0471m  
    1.87000n    799.2063m      1.0458m  
    1.88000n    799.2034m      1.0445m  
    1.89000n    799.2005m      1.0432m  
    1.90000n    799.1976m      1.0419m  
    1.91000n    799.1947m      1.0406m  
    1.92000n    799.1917m      1.0393m  
    1.93000n    799.1888m      1.0380m  
    1.94000n    799.1859m      1.0367m  
    1.95000n    799.1830m      1.0354m  
    1.96000n    799.1801m      1.0341m  
    1.97000n    799.1771m      1.0328m  
    1.98000n    799.1742m      1.0315m  
    1.99000n    799.1713m      1.0302m  
    2.00000n    799.1684m      1.0289m  
    2.01000n    799.5086m      1.0487m  
    2.02000n    798.0953m      1.0190m  
    2.03000n    541.6406m     25.6270m  
    2.04000n      3.0679m    799.6776m  
    2.05000n      1.5100m    799.9161m  
    2.06000n      1.0392m    799.1965m  
    2.07000n      1.0445m    799.1958m  
    2.08000n      1.0477m    799.1956m  
    2.09000n      1.0446m    799.1941m  
    2.10000n      1.0395m    799.1916m  
    2.11000n      1.0410m    799.1960m  
    2.12000n      1.0409m    799.1959m  
    2.13000n      1.0409m    799.1959m  
    2.14000n      1.0410m    799.1960m  
    2.15000n      1.0410m    799.1960m  
    2.16000n      1.0409m    799.1960m  
    2.17000n      1.0409m    799.1959m  
    2.18000n      1.0409m    799.1959m  
    2.19000n      1.0409m    799.1959m  
    2.20000n      1.0409m    799.1959m  
    2.21000n      1.0409m    799.1959m  
    2.22000n      1.0409m    799.1959m  
    2.23000n      1.0409m    799.1959m  
    2.24000n      1.0409m    799.1959m  
    2.25000n      1.0409m    799.1959m  
    2.26000n      1.0409m    799.1960m  
    2.27000n      1.0409m    799.1960m  
    2.28000n      1.0410m    799.1960m  
    2.29000n      1.0410m    799.1960m  
    2.30000n      1.0410m    799.1960m  
    2.31000n      1.0410m    799.1960m  
    2.32000n      1.0410m    799.1960m  
    2.33000n      1.0410m    799.1960m  
    2.34000n      1.0410m    799.1960m  
    2.35000n      1.0410m    799.1960m  
    2.36000n      1.0410m    799.1960m  
    2.37000n      1.0410m    799.1960m  
    2.38000n      1.0410m    799.1960m  
    2.39000n      1.0409m    799.1960m  
    2.40000n      1.0409m    799.1960m  
    2.41000n      1.0409m    799.1960m  
    2.42000n      1.0409m    799.1960m  
    2.43000n      1.0409m    799.1959m  
    2.44000n      1.0409m    799.1959m  
    2.45000n      1.0409m    799.1959m  
    2.46000n      1.0409m    799.1959m  
[...]
    3.68000n    799.1959m      1.0414m  
    3.69000n    799.1959m      1.0414m  
    3.70000n    799.1959m      1.0414m  
    3.71000n    799.1959m      1.0414m  
    3.72000n    799.1959m      1.0414m  
    3.73000n    799.1959m      1.0414m  
    3.74000n    799.1959m      1.0414m  
    3.75000n    799.1959m      1.0414m  
    3.76000n    799.1959m      1.0414m  
    3.77000n    799.1959m      1.0414m  
    3.78000n    799.1959m      1.0414m  
    3.79000n    799.1959m      1.0414m  
    3.80000n    799.1959m      1.0414m  
    3.81000n    799.1959m      1.0414m  
    3.82000n    799.1959m      1.0414m  
    3.83000n    799.1959m      1.0414m  
    3.84000n    799.1959m      1.0414m  
    3.85000n    799.1959m      1.0414m  
    3.86000n    799.1959m      1.0414m  
    3.87000n    799.1959m      1.0414m  
    3.88000n    799.1959m      1.0414m  
    3.89000n    799.1959m      1.0414m  
    3.90000n    799.1959m      1.0414m  
    3.91000n    799.1959m      1.0414m  
    3.92000n    799.1959m      1.0414m  
    3.93000n    799.1959m      1.0414m  
    3.94000n    799.1959m      1.0414m  
    3.95000n    799.1959m      1.0414m  
    3.96000n    799.1959m      1.0414m  
    3.97000n    799.1959m      1.0414m  
    3.98000n    799.1959m      1.0414m  
    3.99000n    799.1959m      1.0414m  
    4.00000n    799.1959m      1.0414m  
    4.01000n    799.1959m      1.0414m  
    4.02000n    799.1959m      1.0414m  
    4.03000n    799.1959m      1.0414m  
    4.04000n    799.1959m      1.0414m  
    4.05000n    799.1959m      1.0414m  
    4.06000n    799.2034m      1.0419m  
    4.07000n    799.2507m      1.0415m  
    4.08000n    753.6525m   -217.7853u  
    4.09000n      1.7417m    800.7527m  
    4.10000n    455.4286u    797.5592m  
    4.11000n      1.0404m    799.1944m  
    4.12000n      1.0416m    799.1933m  
    4.13000n      1.0410m    799.1798m  
    4.14000n      1.0413m    799.1947m  
    4.15000n      1.0417m    799.2095m  
    4.16000n      1.0419m    799.2185m  
    4.17000n      1.0418m    799.2131m  
    4.18000n      1.0417m    799.2077m  
    4.19000n      1.0416m    799.2023m  
    4.20000n      1.0414m    799.1969m  
    4.21000n      1.0413m    799.1914m  
    4.22000n      1.0412m    799.1860m  
    4.23000n      1.0411m    799.1806m  
    4.24000n      1.0410m    799.1752m  
    4.25000n      1.0409m    799.1732m  
    4.26000n      1.0410m    799.1758m  
    4.27000n      1.0410m    799.1784m  
    4.28000n      1.0411m    799.1810m  
    4.29000n      1.0411m    799.1835m  
    4.30000n      1.0412m    799.1861m  
    4.31000n      1.0412m    799.1887m  
    4.32000n      1.0413m    799.1913m  
    4.33000n      1.0414m    799.1938m  
    4.34000n      1.0414m    799.1964m  
    4.35000n      1.0415m    799.1990m  
    4.36000n      1.0415m    799.2016m  
    4.37000n      1.0416m    799.2041m  
    4.38000n      1.0416m    799.2067m  
    4.39000n      1.0417m    799.2093m  
    4.40000n      1.0417m    799.2118m  
    4.41000n      1.0418m    799.2144m  
    4.42000n      1.0418m    799.2170m  
    4.43000n      1.0419m    799.2196m  
    4.44000n      1.0419m    799.2187m  
    4.45000n      1.0418m    799.2175m  
    4.46000n      1.0418m    799.2164m  
    4.47000n      1.0418m    799.2152m  
    4.48000n      1.0418m    799.2140m  
    4.49000n      1.0417m    799.2128m  
    4.50000n      1.0417m    799.2116m  
    4.51000n      1.0417m    799.2104m  
    4.52000n      1.0417m    799.2092m  
    4.53000n      1.0417m    799.2080m  
    4.54000n      1.0416m    799.2068m  
    4.55000n      1.0416m    799.2057m  
    4.56000n      1.0416m    799.2045m  
    4.57000n      1.0416m    799.2033m  
    4.58000n      1.0415m    799.2021m  
    4.59000n      1.0415m    799.2009m  
    4.60000n      1.0415m    799.1997m  
    4.61000n      1.0415m    799.1985m  
    4.62000n      1.0414m    799.1973m  
    4.63000n      1.0414m    799.1961m  
    4.64000n      1.0414m    799.1949m  
    4.65000n      1.0414m    799.1938m  
    4.66000n      1.0413m    799.1926m  
    4.67000n      1.0413m    799.1914m  
    4.68000n      1.0413m    799.1902m  
    4.69000n      1.0413m    799.1890m  
    4.70000n      1.0412m    799.1878m  
    4.71000n      1.0412m    799.1866m  
    4.72000n      1.0412m    799.1854m  
    4.73000n      1.0412m    799.1842m  
    4.74000n      1.0411m    799.1831m  
    4.75000n      1.0411m    799.1819m  
    4.76000n      1.0411m    799.1807m  
    4.77000n      1.0411m    799.1795m  
    4.78000n      1.0410m    799.1783m  
    4.79000n      1.0410m    799.1771m  
    4.80000n      1.0410m    799.1759m  
    4.81000n      1.0410m    799.1747m  
    4.82000n      1.0410m    799.1735m  
    4.83000n      1.0409m    799.1724m  
    4.84000n      1.0410m    799.1742m  
    4.85000n      1.0410m    799.1764m  
    4.86000n      1.0411m    799.1785m  
    4.87000n      1.0411m    799.1807m  
    4.88000n      1.0411m    799.1829m  
    4.89000n      1.0412m    799.1850m  
    4.90000n      1.0412m    799.1872m  
    4.91000n      1.0413m    799.1894m  
    4.92000n      1.0413m    799.1915m  
    4.93000n      1.0414m    799.1937m  
    4.94000n      1.0414m    799.1959m  
    4.95000n      1.0414m    799.1980m  
    4.96000n      1.0415m    799.2002m  
    4.97000n      1.0415m    799.2024m  
    4.98000n      1.0416m    799.2045m  
    4.99000n      1.0416m    799.2067m  
    5.00000n      1.0417m    799.2089m  
    5.01000n      1.0417m    799.2110m  
    5.02000n      1.0417m    799.2132m  
    5.03000n      1.0418m    799.2154m  
    5.04000n      1.0418m    799.2176m  
    5.05000n      1.0419m    799.2197m  
    5.06000n      1.0415m    799.1959m  
    5.07000n      1.0414m    799.1960m  
    5.08000n      1.0414m    799.1960m  
    5.09000n      1.0414m    799.1960m  
    5.10000n      1.0414m    799.1960m  
    5.11000n      1.0414m    799.1960m  
    5.12000n      1.0414m    799.1960m  
    5.13000n      1.0414m    799.1960m  
    5.14000n      1.0414m    799.1960m  
    5.15000n      1.0414m    799.1960m  
    5.16000n      1.0414m    799.1960m  
    5.17000n      1.0414m    799.1960m  
    5.18000n      1.0414m    799.1960m  
    5.19000n      1.0414m    799.1960m  
    5.20000n      1.0414m    799.1960m  
    5.21000n      1.0414m    799.1960m  
    5.22000n      1.0414m    799.1960m  
    5.23000n      1.0414m    799.1960m  
    5.24000n      1.0414m    799.1960m  
    5.25000n      1.0414m    799.1960m  
    5.26000n      1.0414m    799.1960m  
    5.27000n      1.0414m    799.1960m  
    5.28000n      1.0414m    799.1960m  
    5.29000n      1.0414m    799.1960m  
    5.30000n      1.0414m    799.1960m  
    5.31000n      1.0414m    799.1960m  
    5.32000n      1.0414m    799.1960m  
    5.33000n      1.0414m    799.1960m  
    5.34000n      1.0414m    799.1960m  
    5.35000n      1.0414m    799.1960m  
    5.36000n      1.0414m    799.1960m  
    5.37000n      1.0414m    799.1960m  
    5.38000n      1.0414m    799.1960m  
    5.39000n      1.0414m    799.1960m  
    5.40000n      1.0414m    799.1960m  
    5.41000n      1.0414m    799.1960m  
    5.42000n      1.0414m    799.1960m  
    5.43000n      1.0414m    799.1960m  
    5.44000n      1.0414m    799.1960m  
    5.45000n      1.0414m    799.1960m  
    5.46000n      1.0414m    799.1960m  
    5.47000n      1.0414m    799.1960m  
    5.48000n      1.0414m    799.1960m  
    5.49000n      1.0414m    799.1960m  
    5.50000n      1.0414m    799.1960m  
    5.51000n      1.0414m    799.1960m  
    5.52000n      1.0414m    799.1960m  
    5.53000n      1.0414m    799.1960m  
    5.54000n      1.0414m    799.1960m  
    5.55000n      1.0414m    799.1960m  
    5.56000n      1.0414m    799.1960m  
    5.57000n      1.0414m    799.1960m  
    5.58000n      1.0414m    799.1960m  
    5.59000n      1.0414m    799.1960m  
    5.60000n      1.0414m    799.1960m  
    5.61000n      1.0414m    799.1960m  
    5.62000n      1.0414m    799.1960m  
    5.63000n      1.0414m    799.1960m  
    5.64000n      1.0414m    799.1960m  
    5.65000n      1.0414m    799.1960m  
    5.66000n      1.0414m    799.1960m  
    5.67000n      1.0414m    799.1960m  
    5.68000n      1.0414m    799.1960m  
    5.69000n      1.0414m    799.1960m  
    5.70000n      1.0414m    799.1960m  
    5.71000n      1.0414m    799.1960m  
    5.72000n      1.0414m    799.1960m  
    5.73000n      1.0414m    799.1960m  
    5.74000n      1.0414m    799.1960m  
    5.75000n      1.0414m    799.1960m  
    5.76000n      1.0414m    799.1960m  
    5.77000n      1.0414m    799.1960m  
    5.78000n      1.0414m    799.1960m  
    5.79000n      1.0414m    799.1960m  
    5.80000n      1.0414m    799.1960m  
    5.81000n      1.0414m    799.1960m  
    5.82000n      1.0414m    799.1960m  
    5.83000n      1.0414m    799.1960m  
    5.84000n      1.0414m    799.1960m  
    5.85000n      1.0414m    799.1960m  
    5.86000n      1.0414m    799.1960m  
    5.87000n      1.0414m    799.1960m  
    5.88000n      1.0414m    799.1960m  
    5.89000n      1.0414m    799.1960m  
    5.90000n      1.0414m    799.1960m  
    5.91000n      1.0414m    799.1960m  
    5.92000n      1.0414m    799.1960m  
    5.93000n      1.0414m    799.1960m  
    5.94000n      1.0414m    799.1960m  
    5.95000n      1.0414m    799.1960m  
    5.96000n      1.0414m    799.1960m  
    5.97000n      1.0414m    799.1960m  
    5.98000n      1.0414m    799.1960m  
    5.99000n      1.0414m    799.1960m  
    6.00000n      1.0414m    799.1960m  
    6.01000n      1.0414m    799.1960m  
    6.02000n      1.0414m    799.1960m  
    6.03000n      1.0414m    799.1960m  
    6.04000n      1.0414m    799.1960m  
    6.05000n      1.0414m    799.1960m  
    6.06000n      1.0414m    799.1960m  
    6.07000n      1.0414m    799.1960m  
    6.08000n      1.0414m    799.1960m  
    6.09000n      1.0414m    799.1960m  
    6.10000n      1.0414m    799.1960m  
    6.11000n      1.0414m    799.1960m  
    6.12000n      1.0414m    799.1960m  
    6.13000n      1.0414m    799.1960m  
    6.14000n      1.0414m    799.1960m  
    6.15000n      1.0414m    799.1960m  
    6.16000n      1.0414m    799.1960m  
    6.17000n      1.0414m    799.1960m  
    6.18000n      1.0414m    799.1960m  
    6.19000n      1.0414m    799.1960m  
    6.20000n      1.0414m    799.1960m  
    6.21000n      1.0414m    799.1960m  
    6.22000n      1.0414m    799.1960m  
    6.23000n      1.0414m    799.1960m  
    6.24000n      1.0414m    799.1960m  
    6.25000n      1.0414m    799.1960m  
    6.26000n      1.0414m    799.1960m  
    6.27000n      1.0414m    799.1960m  
    6.28000n      1.0414m    799.1960m  
    6.29000n      1.0414m    799.1960m  
    6.30000n      1.0414m    799.1960m  
    6.31000n      1.0414m    799.1960m  
    6.32000n      1.0414m    799.1960m  
    6.33000n      1.0414m    799.1960m  
    6.34000n      1.0414m    799.1960m  
    6.35000n      1.0414m    799.1960m  
    6.36000n      1.0414m    799.1960m  
    6.37000n      1.0414m    799.1960m  
    6.38000n      1.0414m    799.1960m  
    6.39000n      1.0414m    799.1960m  
    6.40000n      1.0414m    799.1960m  
    6.41000n      1.0414m    799.1960m  
    6.42000n      1.0414m    799.1960m  
    6.43000n      1.0414m    799.1960m  
    6.44000n      1.0414m    799.1960m  
    6.45000n      1.0414m    799.1960m  
    6.46000n      1.0414m    799.1960m  
    6.47000n      1.0414m    799.1960m  
    6.48000n      1.0414m    799.1960m  
    6.49000n      1.0414m    799.1960m  
    6.50000n      1.0414m    799.1960m  
    6.51000n      1.0414m    799.1960m  
    6.52000n      1.0414m    799.1960m  
    6.53000n      1.0414m    799.1960m  
    6.54000n      1.0414m    799.1960m  
    6.55000n      1.0414m    799.1960m  
    6.56000n      1.0414m    799.1960m  
    6.57000n      1.0414m    799.1960m  
    6.58000n      1.0414m    799.1960m  
    6.59000n      1.0414m    799.1960m  
    6.60000n      1.0414m    799.1960m  
    6.61000n      1.0414m    799.1960m  
    6.62000n      1.0414m    799.1960m  
    6.63000n      1.0414m    799.1960m  
    6.64000n      1.0414m    799.1960m  
    6.65000n      1.0414m    799.1960m  
    6.66000n      1.0414m    799.1960m  
    6.67000n      1.0414m    799.1960m  
    6.68000n      1.0414m    799.1960m  
    6.69000n      1.0414m    799.1960m  
    6.70000n      1.0414m    799.1960m  
    6.71000n      1.0414m    799.1960m  
    6.72000n      1.0414m    799.1960m  
    6.73000n      1.0414m    799.1960m  
    6.74000n      1.0414m    799.1960m  
    6.75000n      1.0414m    799.1960m  
    6.76000n      1.0414m    799.1960m  
    6.77000n      1.0414m    799.1960m  
    6.78000n      1.0414m    799.1960m  
    6.79000n      1.0414m    799.1960m  
    6.80000n      1.0414m    799.1960m  
    6.81000n      1.0414m    799.1960m  
    6.82000n      1.0414m    799.1960m  
    6.83000n      1.0414m    799.1960m  
    6.84000n      1.0414m    799.1960m  
    6.85000n      1.0414m    799.1960m  
    6.86000n      1.0414m    799.1960m  
    6.87000n      1.0414m    799.1960m  
    6.88000n      1.0414m    799.1960m  
    6.89000n      1.0414m    799.1960m  
    6.90000n      1.0414m    799.1960m  
    6.91000n      1.0414m    799.1960m  
    6.92000n      1.0414m    799.1960m  
    6.93000n      1.0414m    799.1960m  
    6.94000n      1.0414m    799.1960m  
    6.95000n      1.0414m    799.1960m  
    6.96000n      1.0414m    799.1960m  
    6.97000n      1.0414m    799.1960m  
    6.98000n      1.0414m    799.1960m  
    6.99000n      1.0414m    799.1960m  
    7.00000n      1.0414m    799.1960m  
    7.01000n      1.0414m    799.1960m  
    7.02000n      1.0414m    799.1960m  
    7.03000n      1.0414m    799.1960m  
    7.04000n      1.0414m    799.1960m  
    7.05000n      1.0414m    799.1960m  
    7.06000n      1.0414m    799.1960m  
    7.07000n      1.0414m    799.1960m  
    7.08000n      1.0414m    799.1960m  
    7.09000n      1.0414m    799.1960m  
    7.10000n      1.0414m    799.1960m  
    7.11000n      1.0414m    799.1960m  
    7.12000n      1.0414m    799.1960m  
    7.13000n      1.0414m    799.1960m  
    7.14000n      1.0414m    799.1960m  
    7.15000n      1.0414m    799.1960m  
    7.16000n      1.0414m    799.1960m  
    7.17000n      1.0414m    799.1960m  
    7.18000n      1.0414m    799.1960m  
    7.19000n      1.0414m    799.1960m  
    7.20000n      1.0414m    799.1960m  
    7.21000n      1.0414m    799.1960m  
    7.22000n      1.0414m    799.1960m  
    7.23000n      1.0414m    799.1960m  
    7.24000n      1.0414m    799.1960m  
    7.25000n      1.0414m    799.1960m  
    7.26000n      1.0414m    799.1960m  
    7.27000n      1.0414m    799.1960m  
    7.28000n      1.0414m    799.1960m  
    7.29000n      1.0414m    799.1960m  
    7.30000n      1.0414m    799.1960m  
    7.31000n      1.0414m    799.1960m  
    7.32000n      1.0414m    799.1960m  
    7.33000n      1.0414m    799.1960m  
    7.34000n      1.0414m    799.1960m  
    7.35000n      1.0414m    799.1960m  
    7.36000n      1.0414m    799.1960m  
    7.37000n      1.0414m    799.1960m  
    7.38000n      1.0414m    799.1960m  
    7.39000n      1.0414m    799.1960m  
    7.40000n      1.0414m    799.1960m  
    7.41000n      1.0414m    799.1960m  
    7.42000n      1.0414m    799.1960m  
    7.43000n      1.0414m    799.1960m  
    7.44000n      1.0414m    799.1960m  
    7.45000n      1.0414m    799.1960m  
    7.46000n      1.0414m    799.1960m  
    7.47000n      1.0414m    799.1960m  
    7.48000n      1.0414m    799.1960m  
    7.49000n      1.0414m    799.1960m  
    7.50000n      1.0414m    799.1960m  
    7.51000n      1.0414m    799.1960m  
    7.52000n      1.0414m    799.1960m  
    7.53000n      1.0414m    799.1960m  
    7.54000n      1.0414m    799.1960m  
    7.55000n      1.0414m    799.1960m  
    7.56000n      1.0414m    799.1960m  
    7.57000n      1.0414m    799.1960m  
    7.58000n      1.0414m    799.1960m  
    7.59000n      1.0414m    799.1960m  
    7.60000n      1.0414m    799.1960m  
    7.61000n      1.0414m    799.1960m  
    7.62000n      1.0414m    799.1960m  
    7.63000n      1.0414m    799.1960m  
    7.64000n      1.0414m    799.1960m  
    7.65000n      1.0414m    799.1960m  
    7.66000n      1.0414m    799.1960m  
    7.67000n      1.0414m    799.1960m  
    7.68000n      1.0414m    799.1960m  
    7.69000n      1.0414m    799.1960m  
    7.70000n      1.0414m    799.1960m  
    7.71000n      1.0414m    799.1960m  
    7.72000n      1.0414m    799.1960m  
    7.73000n      1.0414m    799.1960m  
    7.74000n      1.0414m    799.1960m  
    7.75000n      1.0414m    799.1960m  
    7.76000n      1.0414m    799.1960m  
    7.77000n      1.0414m    799.1960m  
    7.78000n      1.0414m    799.1960m  
    7.79000n      1.0414m    799.1960m  
    7.80000n      1.0414m    799.1960m  
    7.81000n      1.0414m    799.1960m  
    7.82000n      1.0414m    799.1960m  
    7.83000n      1.0414m    799.1960m  
    7.84000n      1.0414m    799.1960m  
    7.85000n      1.0414m    799.1960m  
    7.86000n      1.0414m    799.1960m  
    7.87000n      1.0414m    799.1960m  
    7.88000n      1.0414m    799.1960m  
    7.89000n      1.0414m    799.1960m  
    7.90000n      1.0414m    799.1960m  
    7.91000n      1.0414m    799.1960m  
    7.92000n      1.0414m    799.1960m  
    7.93000n      1.0414m    799.1960m  
    7.94000n      1.0414m    799.1960m  
    7.95000n      1.0414m    799.1960m  
    7.96000n      1.0414m    799.1960m  
    7.97000n      1.0414m    799.1960m  
    7.98000n      1.0414m    799.1960m  
    7.99000n      1.0414m    799.1960m  
    8.00000n      1.0414m    799.1960m  
y
 inv_avg_power00=   2.9555u  from=   0.          to=   8.0000n
 peakpower00= 654.2156u    at=   7.1215n
             from=   0.         to=   8.0000n
 power_avg=  27.5400u  from=   0.          to=   8.0000n
 avg_power= 3.602e+13  from=   0.          to=   8.0000n

          ***** job concluded
1****** HSPICE -- F-2011.09-SP2 64-BIT (Feb 27 2012) linux ******               
 ******  
 $this uut was automatically generated by:

  ******  job statistics summary tnom=  25.000 temp=  25.000 *****
  
  
 ******  Machine Information  ******
 CPU:
 model name	: Intel(R) Xeon(R) CPU E5-2650 v4 @ 2.20GHz
 cpu MHz	: 2835.164
  
 OS:
 Linux version 3.10.0-693.17.1.el7.x86_64 (mockbuild@x86-041.build.eng.bos.redha
 t.com) (gcc version 4.8.5 20150623 (Red Hat 4.8.5-16) (GCC) ) #1 SMP Sun Jan 14
  10:36:03 EST 2018


  ******  HSPICE Threads Information  ******

  Command Line Threads Count :     1
  Available CPU Count        :    24
  Actual Threads Count       :     1


  ******  Circuit Statistics  ******
  # nodes       =      83 # elements   =      34
  # resistors   =       0 # capacitors =       0 # inductors   =       0
  # mutual_inds =       0 # vccs       =       0 # vcvs        =       0
  # cccs        =       0 # ccvs       =       0 # volt_srcs   =       4
  # curr_srcs   =       0 # diodes     =       0 # bjts        =       0
  # jfets       =       0 # mosfets    =      30 # U elements  =       0
  # T elements  =       0 # W elements =       0 # B elements  =       0
  # S elements  =       0 # P elements =       0 # va device   =       0
  # vector_srcs =       0


  ******  Runtime Statistics (seconds)  ******

  analysis           time    # points   tot. iter  conv.iter
  op point           0.03           1         118
  transient          0.25         801        2020         331 rev=        27
  readin             0.01
  errchk             0.00
  setup              0.00
  output             0.00


           peak memory used        135.46 megabytes
           total cpu time            0.29 seconds
           total elapsed time        0.55 seconds
           job started at     18:49:37 09/11/2020
           job ended   at     18:49:38 09/11/2020


 lic: Release hspice token(s) 
