 ****** HSPICE -- F-2011.09-SP2 64-BIT (Feb 27 2012) linux ******               
  Copyright (C) 2011 Synopsys, Inc. All Rights Reserved.                        
  Unpublished-rights reserved under US copyright laws.
  This program is protected by law and is subject to the
  terms and conditions of the license agreement from Synopsys.
  Use of this program is your acceptance to be bound by the
  license agreement. HSPICE is the trademark of Synopsys, Inc.
  Input File: ptm16hp.sp                                                        
  Command line options: ptm16hp.sp
 lic:  
 lic: FLEXlm: v10.8 
 lic: USER:   iliabautista         HOSTNAME: itn1.rc.usf.edu 
 lic: HOSTID:                      PID:      182822 
 lic: Using FLEXlm license file: 
 lic: 27000@license0.rc.usf.edu 
 lic: Checkout 1 hspice 
 lic: License/Maintenance for hspice will expire on 18-jul-2021/2019.06 
 lic: 1(in_use)/50(total) FLOATING license(s) on SERVER license0.rc.usf.edu 
 lic:   
  **warning** (../modelfiles/hp/16nfet.pm:4) Model nfet device geometries will not be checked against the limits set by lmin, lmax, nfinmin and nfinmax. To enable this check, add a period(.) to the model name(i.e. enable model selector).
1****** HSPICE -- F-2011.09-SP2 64-BIT (Feb 27 2012) linux ******               
 ******  
 $this uut was automatically generated by:

  ******  circuit name directory
 circuit number to circuit name directory
   number circuitname                     definition         multiplier
        0 main circuit
        1 xinput_0.                       inverter           1.00 
        2 xinput_1.                       inverter           1.00 
        3 xinverter00.                    inverter           1.00 
        4 xinverter10.                    inverter           1.00 
        5 xinverter01.                    inverter           1.00 
        6 xinverter11.                    inverter           1.00 
        7 xoutput_00.                     inverter           1.00 
        8 xoutput_10.                     inverter           1.00 
        9 xinput_0.xpfet.                 pfet               1.00 
       10 xinput_0.xnfet.                 nfet               1.00 
       11 xinput_1.xpfet.                 pfet               1.00 
       12 xinput_1.xnfet.                 nfet               1.00 
       13 xinverter00.xpfet.              pfet               1.00 
       14 xinverter00.xnfet.              nfet               1.00 
       15 xinverter10.xpfet.              pfet               1.00 
       16 xinverter10.xnfet.              nfet               1.00 
       17 xinverter01.xpfet.              pfet               1.00 
       18 xinverter01.xnfet.              nfet               1.00 
       19 xinverter11.xpfet.              pfet               1.00 
       20 xinverter11.xnfet.              nfet               1.00 
       21 xoutput_00.xpfet.               pfet               1.00 
       22 xoutput_00.xnfet.               nfet               1.00 
       23 xoutput_10.xpfet.               pfet               1.00 
       24 xoutput_10.xnfet.               nfet               1.00 
1****** HSPICE -- F-2011.09-SP2 64-BIT (Feb 27 2012) linux ******               
 ******  
 $this uut was automatically generated by:

  ******  mos   model parameters tnom=  25.000 temp=  25.000 *****
 Model Name: pfet 
 BSIM-MG BULK Model(Level72)
   VERSION = 105.03  
   DEVTYPE = -1 
   BULKMOD = 1  
   COREMOD = 0 
   GEOMOD = 1 
   RDSMOD = 1 
   IGCMOD = 1 
   IGBMOD = 1 
   GIDLMOD = 0 
   IIMOD = 0 
   NQSMOD = 0 
   SHMOD = 0 
   RGATEMOD = 0 
   RGEOMOD = 1 
   CGEOMOD = 2 
   CAPMOD = 0 
   LINT =  1e-09 m
   LL =      0 m^(LLN+1)
   LLN =      1 
   DLC =      0 m
   DLBIN =      0 
   LLC =      0 m^(LLN+1)
   EOT =  8e-10 m
   TOXP = 1.35e-09 m
   EOTBOX = 1.4e-07 m
   HFIN = 2.6e-08 m
   FECH =      1 
   DELTAW =      0 m
   FECHCV =      1 
   DELTAWCV =      0 m
   NBODY =  1e+23 m^-3
   NSD =  3e+26 m^-3
   PHIG =  4.764 eV
   EPSROX =    3.9 
   EPSRSUB =   11.9 
   EASUB =   4.05 eV
   NI0SUB = 1.1e+16 m^-3
   BG0SUB =   1.12 eV
   NC0SUB = 2.86e+25 m^-3
   NGATE =      0 m^-3
   CIT = 1.3e-05 F/m^2
   CDSC =  0.018 F/m^2
   CDSCD =  0.007 F/m^2
   CDSCDR =  0.007 
   DVT0 =   0.01 
   DVT1 =   0.69 
   PHIN =   0.05 V
   ETA0 =  0.778 
   ETA0R =  0.778 
   DSUB =    0.9 
   K1RSCE =      0 V^1/2
   LPE0 =  5e-09 m
   DVTSHIFT =      0 
   QMFACTOR =      0 
   QMTCENIV =      0 
   QMTCENCV =      0 
   AQMTCEN =      0 
   BQMTCEN = 1.2e-08 
   ETAQM =   0.54 
   QM0 = 0.001143 
   PQM =   0.66 
   QM0ACC =  0.001 
   PQMACC =   0.66 
   VSAT = 8.8e+04 
   AVSAT =      0 
   BVSAT =  1e-07 
   VSAT1 = 8.8e+04 
   AVSAT1 =      0 
   BVSAT1 =  1e-07 
   DELTAVSAT =      1 
   KSATIV =    0.8 
   MEXP =      3 
   AMEXP =      0 
   BMEXP =      1 
   PTWG =      0 
   APTWG =      0 
   BPTWG =  1e-07 
   AT = -0.00156 
   TMEXP =      0 
   PTWGT =  0.004 
   U0 =   0.03 
   ETAMOB =      2 
   UP =      0 
   LPA =      1 
   UA =    0.3 
   AUA =      0 
   BUA =  1e-07 
   EU =    1.8 
   AEU =      0 
   BEU =  1e-07 
   UD =      0 
   AUD =      0 
   BUD =  5e-08 
   UCS =      0 
   UTE =      0 
   UTL = -0.0015 
   UA1 = 0.001032 
   UD1 =      0 
   UCSTE = -0.00478 
   RDSWMIN =      0 
   RDSW =    100 
   ARDSW =      0 
   BRDSW =  1e-07 
   RSWMIN =      0 
   RSW =      0 
   ARSW =      0 
   BRSW =  1e-07 
   RDWMIN =      0 
   RDW =      0 
   ARDW =      0 
   BRDW =  1e-07 
   PRWG =      0 
   WR =      1 
   PRT =  0.001 
   PDIBL1 =    1.3 
   PDIBL2 = 0.0002 
   DROUT =   1.06 
   PVAG =      1 
   PCLM =    0.2 
   APCLM =      0 
   BPCLM =  1e-07 
   PCLMG =      0 
   VASAT =    0.6 
   PCLMCV =  0.013 
   PCLMGCV =      0 
   VASATCV =    0.2 
   RGEXT =      0 ohm
   RGFIN =  0.001 ohm
   RSHS =      0 ohm
   RSHD =      0 ohm
   HEPI = 9.5e-09 m
   TSILI =  9e-09 m
   RHOC =  2e-12 ohm/m^2
   RHORSD =      1 ohm/m
   RHOEXT =      1 ohm/m
   CRATIO =    0.5 
   DELTAPRSD =      0 m
   SDTERM = 0 
   LSP =  4e-09 m
   LDG =  3e-09 m
   EPSRSP =    3.9 
   TGATE =  9e-09 m
   TMASK =      0 m
   ASILIEND =      0 m^2
   ARSDEND =      0 m^2
   PRSDEND =      0 m
   NSDE =  3e+25 m^-3
   RGEOA =      1 
   RGEOB =      0 m^-1
   RGEOC =      0 m^-1
   RGEOD =      0 m^-1
   RGEOE =      0 m^-1
   CGEOA =      1 
   CGEOB =      0 m^-1
   CGEOC =      0 m^-1
   CGEOD =      0 m^-1
   CGEOE =      1 
   AIGBINV = 0.0111 (Fs^2/g)^0.5m^-1
   BIGBINV =   0.03 (Fs^2/g)^0.5m^-1
   CIGBINV =  0.006 V^-1
   EIGBINV =    1.1 V
   NIGBINV =    1.2 
   AIGBACC = 0.0149 
   BIGBACC = 0.000949 
   CIGBACC =  0.075 
   NIGBACC =      3 
   AIGC = 0.0136 (Fs^2/g)^0.5m^-1
   BIGC = 0.00171 (Fs^2/g)^0.5m^-1V^-1
   CIGC =  0.075 V^-1
   NIGC =      1 
   DLCIGS =      0 m
   AIGS = 0.0136 (Fs^2/g)^0.5m^-1
   BIGS = 0.00171 (Fs^2/g)^0.5m^-1V^-1
   CIGS =  0.075 V^-1
   DLCIGD =      0 m
   AIGD = 0.0136 (Fs^2/g)^0.5m^-1
   BIGD = 0.00171 (Fs^2/g)^0.5m^-1V^-1
   CIGD =  0.075 V^-1
   POXEDGE =      1 
   AGIDL = 5.729e-12 ohm^-1
   BGIDL =  3e+08 V/m
   EGIDL =    0.1 V
   AGISL = 5.729e-12 ohm^-1
   BGISL =  3e+08 V/m
   EGISL =    0.1 V
   ALPHA0 =      0 mV^-1
   ALPHA1 =      0 V^-1
   BETA0 =     30 V^-1
   ALPHAII =      0 
   BETAII0 =      0 V^-1
   BETAII1 =      0 
   BETAII2 =    0.1 V
   ESATII =  1e+07 V/m
   LII =  5e-10 V/m
   SII0 =    0.5 V^-1
   SII1 =    0.1 
   SII2 =      0 V
   SIID =      0 V
   EOTACC =  8e-10 m
   DELVFBACC =      0 V
   CFS = 2.56e-11 F/m
   CFD = 2.65e-11 F/m
   COVS = 2.5e-11 F/m
   COVD = 2.5e-11 F/m
   CGSO =      0 F/m
   CGDO =      0 F/m
   CGSL =      0 F/m
   CGDL =      0 F/m
   CKAPPAS =    0.6 V
   CKAPPAD =    0.6 V
   CGBO =      0 F/m
   CGBL =      0 F/m
   CKAPPAB =    0.6 V
   CSDESW =      0 F/m
   CJS = 0.0005 F/m^2
   CJD = 0.0005 F/m^2
   CJSWS =  5e-10 F/m
   CJSWD =  5e-10 F/m
   CJSWGS =      0 F/m
   CJSWGD =      0 F/m
   PBS =      1 V
   PBD =      1 V
   PBSWS =      1 V
   PBSWD =      1 V
   PBSWGS =      1 V
   PBSWGD =      1 V
   MJS, =    0.5 
   MJD =    0.5 
   MJSWS =   0.33 
   MJSWD =   0.33 
   MJSWGS =   0.33 
   MJSWGD =   0.33 
   SJS =      0 
   SJD =      0 
   SJSWS =      0 
   SJSWD =      0 
   SJSWGS =      0 
   SJSWGD =      0 
   MJS2 =  0.125 
   MJD2 =  0.125 
   MJSWS2 =   0.33 
   MJSWD2 =   0.33 
   MJSWGS2 =   0.33 
   MJSWGD2 =   0.33 
   JSS = 0.0001 A/m^2
   JSD = 0.0001 A/m^2
   JSWS =      0 A/m
   JSWD =      0 A/m
   JSWGS =      0 A/m
   JSWGD =      0 A/m
   NJS =      1 
   NJD =      1 
   IJTHSFWD =    0.1 A
   IJTHDFWD =    0.1 A
   IJTHSREV =    0.1 A
   IJTHDREV =    0.1 A
   BVS =     10 V
   BVD =     10 V
   XJBVS =      1 
   XJBVD =      1 
   JTSS =      0 A/m^2
   JTSD =      0 A/m^2
   JTSSWS =      0 A/m
   JTSSWD =      0 A/m
   JTSSWGS =      0 A/m
   JTSSWGD =      0 A/m
   JTWEFF =      0 m
   NJTS =     20 
   NJTSD =     20 
   NJTSSW =     20 
   NJTSSWD =     20 
   NJTSSWG =     20 
   NJTSSWGD =     20 
   VTSS =     10 V
   VTSD =     10 V
   VTSSWS =     10 V
   VTSSWD =     10 V
   VTSSWGS =     10 V
   VTSSWGD =     10 V
   LINTIGEN =      0 m
   NTGEN =      1 
   AIGEN =      0 m^-3V^-1
   BIGEN =      0 m^-3V^-3
   XRCRG1 =     12 
   XRCRG2 =      1 
   NSEG = 5 
   EF =      1 
   EM = 4.1e+07 V/m
   NOIA = 6.25e+39 eV^-1s^1-EFm^-3
   NOIB = 3.125e+24 eV^-1s^1-EFm^-1
   NOIC = 8.75e+07 eV^-1s^1-EFm
   NTNOI =      1 
   TNOM =  300.1 K
   TBGASUB = 0.000702 eV/K
   TBGBSUB =   1108 K
   KT1 =      0 V
   KT1L =      0 Vm
   IIT =   -0.5 
   TII =      0 
   TGIDL = -0.0003 K^-1
   IGT =    2.5 
   TCJ =      0 K^-1
   TCJSW =      0 K^-1
   TCJSWG =      0 K^-1
   TPB =      0 K^-1
   TPBSW =      0 K^-1
   TPBSWG =      0 K^-1
   XTIS =      3 
   XTID =      3 
   XTSS =   0.02 
   XTSD =   0.02 
   XTSSWS =   0.02 
   XTSSWD =   0.02 
   XTSSWGS =   0.02 
   XTSSWGD =   0.02 
   TNJTS =      0 
   TNJTSD =      0 
   TNJTSSW =      0 
   TNJTSSWD =      0 
   TNJTSSWG =      0 
   TNJTSSWGD =      0 
   RTH0 =   0.01 ohm
   CTH0 =  1e-05 F
   WTH0 =      0 m
   LNBODY =      0 
   NNBODY =      0 
   PNBODY =      0 
   LPHIG =      0 
   NPHIG =      0 
   PPHIG =      0 
   LNGATE =      0 
   NNGATE =      0 
   PNGATE =      0 
   LCIT =      0 
   NCIT =      0 
   PCIT =      0 
   LCDSC =      0 
   NCDSC =      0 
   PCDSC =      0 
   LCDSCD =      0 
   NCDSCD =      0 
   PCDSCD =      0 
   LCDSCDR =      0 
   NCDSCDR =      0 
   PCDSCDR =      0 
   LDVT0 =      0 
   NDVT0 =      0 
   PDVT0 =      0 
   LDVT1 =      0 
   NDVT1 =      0 
   PDVT1 =      0 
   LPHIN =      0 
   NPHIN =      0 
   PPHIN =      0 
   LETA0 =      0 
   NETA0 =      0 
   PETA0 =      0 
   LETA0R =      0 
   NETA0R =      0 
   PETA0R =      0 
   LDSUB =      0 
   NDSUB =      0 
   PDSUB =      0 
   LK1RSCE =      0 
   NK1RSCE =      0 
   PK1RSCE =      0 
   LLPE0 =      0 
   NLPE0 =      0 
   PLPE0 =      0 
   LQMFACTOR =      0 
   NQMFACTOR =      0 
   PQMFACTOR =      0 
   LQMTCENIV =      0 
   NQMTCENIV =      0 
   PQMTCENIV =      0 
   LQMTCENCV =      0 
   NQMTCENCV =      0 
   PQMTCENCV =      0 
   LVSAT =      0 
   NVSAT =      0 
   PVSAT =      0 
   LKSATIV =      0 
   NKSATIV =      0 
   PKSATIV =      0 
   LMEXP =      0 
   NMEXP =      0 
   PMEXP =      0 
   LPTWG =      0 
   NPTWG =      0 
   PPTWG =      0 
   LTHETASAT =      0 
   NTHETASAT =      0 
   PTHETASAT =      0 
   LU0 =      0 
   NU0 =      0 
   PU0 =      0 
   LUP =      0 
   NUP =      0 
   PUP =      0 
   LUA =      0 
   NUA =      0 
   PUA =      0 
   LEU =      0 
   NEU =      0 
   PEU =      0 
   LUD =      0 
   NUD =      0 
   PUD =      0 
   LUCS =      0 
   NUCS =      0 
   PUCS =      0 
   LPCLM =      0 
   NPCLM =      0 
   PPCLM =      0 
   LPCLMCV =      0 
   NPCLMCV =      0 
   PPCLMCV =      0 
   LRDSW =      0 
   NRDSW =      0 
   PRDSW =      0 
   LRSW =      0 
   NRSW =      0 
   PRSW =      0 
   LRDW =      0 
   NRDW =      0 
   PRDW =      0 
   LPRWG =      0 
   NPRWG =      0 
   PPRWG =      0 
   LWR =      0 
   NWR =      0 
   PWR =      0 
   LPDIBL1 =      0 
   NPDIBL1 =      0 
   PPDIBL1 =      0 
   LPDIBL2 =      0 
   NPDIBL2 =      0 
   PPDIBL2 =      0 
   LDROUT =      0 
   NDROUT =      0 
   PDROUT =      0 
   LPVAG =      0 
   NPVAG =      0 
   PPVAG =      0 
   LAIGBINV =      0 
   NAIGBINV =      0 
   PAIGBINV =      0 
   LBIGBINV =      0 
   NBIGBINV =      0 
   PBIGBINV =      0 
   LCIGBINV =      0 
   NCIGBINV =      0 
   PCIGBINV =      0 
   LEIGBINV =      0 
   NEIGBINV =      0 
   PEIGBINV =      0 
   LNIGBINV =      0 
   NNIGBINV =      0 
   PNIGBINV =      0 
   LAIGC =      0 
   NAIGC =      0 
   PAIGC =      0 
   LBIGC =      0 
   NBIGC =      0 
   PBIGC =      0 
   LCIGC =      0 
   NCIGC =      0 
   PCIGC =      0 
   LNIGC =      0 
   NNIGC =      0 
   PNIGC =      0 
   LAIGS =      0 
   NAIGS =      0 
   PAIGS =      0 
   LBIGS =      0 
   NBIGS =      0 
   PBIGS =      0 
   LCIGS =      0 
   NCIGS =      0 
   PCIGS =      0 
   LAIGD =      0 
   NAIGD =      0 
   PAIGD =      0 
   LBIGD =      0 
   NBIGD =      0 
   PBIGD =      0 
   LCIGD =      0 
   NCIGD =      0 
   PCIGD =      0 
   LPOXEDGE =      0 
   NPOXEDGE =      0 
   PPOXEDGE =      0 
   LAGIDL =      0 
   NAGIDL =      0 
   PAGIDL =      0 
   LBGIDL =      0 
   NBGIDL =      0 
   PBGIDL =      0 
   LEGIDL =      0 
   NEGIDL =      0 
   PEGIDL =      0 
   LAGISL =      0 
   NAGISL =      0 
   PAGISL =      0 
   LBGISL =      0 
   NBGISL =      0 
   PBGISL =      0 
   LEGISL =      0 
   NEGISL =      0 
   PEGISL =      0 
   LALPHA0 =      0 
   NALPHA0 =      0 
   PALPHA0 =      0 
   LALPHA1 =      0 
   NALPHA1 =      0 
   PALPHA1 =      0 
   LBETA0 =      0 
   NBETA0 =      0 
   PBETA0 =      0 
   LALPHAII =      0 
   NALPHAII =      0 
   PALPHAII =      0 
   LBETAII0 =      0 
   NBETAII0 =      0 
   PBETAII0 =      0 
   LBETAII1 =      0 
   NBETAII1 =      0 
   PBETAII1 =      0 
   LBETAII2 =      0 
   NBETAII2 =      0 
   PBETAII2 =      0 
   LESATII =      0 
   NESATII =      0 
   PESATII =      0 
   LLII =      0 
   NLII =      0 
   PLII =      0 
   LSII0 =      0 
   NSII0 =      0 
   PSII0 =      0 
   LSII1 =      0 
   NSII1 =      0 
   PSII1 =      0 
   LSII2 =      0 
   NSII2 =      0 
   PSII2 =      0 
   LSIID =      0 
   NSIID =      0 
   PSIID =      0 
   LCFS =      0 
   NCFS =      0 
   PCFS =      0 
   LCFD =      0 
   NCFD =      0 
   PCFD =      0 
   LCOVS =      0 
   NCOVS =      0 
   PCOVS =      0 
   LCOVD =      0 
   NCOVD =      0 
   PCOVD =      0 
   LCGSL =      0 
   NCGSL =      0 
   PCGSL =      0 
   LCGDL =      0 
   NCGDL =      0 
   PCGDL =      0 
   LCKAPPAS =      0 
   NCKAPPAS =      0 
   PCKAPPAS =      0 
   LCKAPPAD =      0 
   NCKAPPAD =      0 
   PCKAPPAD =      0 
   LCGBL =      0 
   NCGBL =      0 
   PCGBL =      0 
   LCKAPPAB =      0 
   NCKAPPAB =      0 
   PCKAPPAB =      0 
   LNTGEN =      0 
   NNTGEN =      0 
   PNTGEN =      0 
   LAIGEN =      0 
   NAIGEN =      0 
   PAIGEN =      0 
   LBIGEN =      0 
   NBIGEN =      0 
   PBIGEN =      0 
   LXRCRG1 =      0 
   NXRCRG1 =      0 
   PXRCRG1 =      0 
   LXRCRG2 =      0 
   NXRCRG2 =      0 
   PXRCRG2 =      0 
   LINTNOI =      0 
   NINTNOI =      0 
   PINTNOI =      0 
   LUTE =      0 
   NUTE =      0 
   PUTE =      0 
   LUTL =      0 
   NUTL =      0 
   PUTL =      0 
   LUA1 =      0 
   NUA1 =      0 
   PUA1 =      0 
   LUD1 =      0 
   NUD1 =      0 
   PUD1 =      0 
   LUCSTE =      0 
   NUCSTE =      0 
   PUCSTE =      0 
   LPTWGT =      0 
   NPTWGT =      0 
   PPTWGT =      0 
   LAT =      0 
   NAT =      0 
   PAT =      0 
   LSTTHETASAT =      0 
   NSTTHETASAT =      0 
   PSTTHETASAT =      0 
   LPRT =      0 
   NPRT =      0 
   PPRT =      0 
   LIIT =      0 
   NIIT =      0 
   PIIT =      0 
   LTII =      0 
   NTII =      0 
   PTII =      0 
   LTGIDL =      0 
   NTGIDL =      0 
   PTGIDL =      0 
   LIGT =      0 
   NIGT =      0 
   PIGT =      0 
   L =  2e-08 m
   D =  4e-08 m
   TFIN = 1.2e-08 m
   FPITCH = 4.2e-08 m
   NF = 1 
   NFIN = 1 
   NGCON = 1 
   ASEO =      0 m^2
   ADEO =      0 m^2
   PSEO =      0 m
   PDEO =      0 m
   ASEJ =      0 m^2
   ADEJ =      0 m^2
   PSEJ =      0 m
   PDEJ =      0 m
   CGSP =      0 F
   CGDP =      0 F
   CDSP =      0 F
   NRS =      0 
   NRD =      0 
   LRSD =  2e-08 m
   XL =      0 m
   DELVTRAND =      0 
   U0MULT =      1 
   IDS0MULT =      1 
   Lmin =  1e-08 m
   Lmax =  3e-08 m
   NFINmin = 0 
   NFINmax = 1 
   LVSAT1 =      0 
   NVSAT1 =      0 
   PVSAT1 =      0 
   LETAMOB =      0 
   NETAMOB =      0 
   PETAMOB =      0 
   LPCLMG =      0 
   NPCLMG =      0 
   PPCLMG =      0 
   LVASAT =      0 
   NVASAT =      0 
   PVASAT =      0 
   LAIGBACC =      0 
   NAIGBACC =      0 
   PAIGBACC =      0 
   LBIGBACC =      0 
   NBIGBACC =      0 
   PBIGBACC =      0 
   LCIGBACC =      0 
   NCIGBACC =      0 
   PCIGBACC =      0 
   LNIGBACC =      0 
   NNIGBACC =      0 
   PNIGBACC =      0 
 Model Name: nfet 
 BSIM-MG BULK Model(Level72)
   VERSION = 105.03  
   DEVTYPE = 1 
   BULKMOD = 1  
   COREMOD = 0 
   GEOMOD = 1 
   RDSMOD = 1 
   IGCMOD = 1 
   IGBMOD = 1 
   GIDLMOD = 0 
   IIMOD = 0 
   NQSMOD = 0 
   SHMOD = 0 
   RGATEMOD = 0 
   RGEOMOD = 1 
   CGEOMOD = 2 
   CAPMOD = 0 
   LINT =  1e-09 m
   LL =      0 m^(LLN+1)
   LLN =      1 
   DLC =      0 m
   DLBIN =      0 
   LLC =      0 m^(LLN+1)
   EOT =  8e-10 m
   TOXP = 1.35e-09 m
   EOTBOX = 1.4e-07 m
   HFIN = 2.6e-08 m
   FECH =      1 
   DELTAW =      0 m
   FECHCV =      1 
   DELTAWCV =      0 m
   NBODY =  1e+23 m^-3
   NSD =  3e+26 m^-3
   PHIG =  4.406 eV
   EPSROX =    3.9 
   EPSRSUB =   11.9 
   EASUB =   4.05 eV
   NI0SUB = 1.1e+16 m^-3
   BG0SUB =   1.12 eV
   NC0SUB = 2.86e+25 m^-3
   NGATE =      0 m^-3
   CIT = 1.3e-05 F/m^2
   CDSC =  0.018 F/m^2
   CDSCD =  0.007 F/m^2
   CDSCDR =  0.007 
   DVT0 =   0.01 
   DVT1 =   0.69 
   PHIN =   0.05 V
   ETA0 = 0.5261 
   ETA0R = 0.5261 
   DSUB =    0.9 
   K1RSCE =      0 V^1/2
   LPE0 =  5e-09 m
   DVTSHIFT =      0 
   QMFACTOR =      0 
   QMTCENIV =      0 
   QMTCENCV =      0 
   AQMTCEN =      0 
   BQMTCEN = 1.2e-08 
   ETAQM =   0.54 
   QM0 = 0.001143 
   PQM =   0.66 
   QM0ACC =  0.001 
   PQMACC =   0.66 
   VSAT =  9e+04 
   AVSAT =      0 
   BVSAT =  1e-07 
   VSAT1 =  9e+04 
   AVSAT1 =      0 
   BVSAT1 =  1e-07 
   DELTAVSAT =      1 
   KSATIV =    0.8 
   MEXP =      3 
   AMEXP =      0 
   BMEXP =      1 
   PTWG =      0 
   APTWG =      0 
   BPTWG =  1e-07 
   AT = -0.00156 
   TMEXP =      0 
   PTWGT =  0.004 
   U0 = 0.0448 
   ETAMOB =      2 
   UP =      0 
   LPA =      1 
   UA =    0.3 
   AUA =      0 
   BUA =  1e-07 
   EU =    1.8 
   AEU =      0 
   BEU =  1e-07 
   UD =      0 
   AUD =      0 
   BUD =  5e-08 
   UCS =      0 
   UTE =      0 
   UTL = -0.0015 
   UA1 = 0.001032 
   UD1 =      0 
   UCSTE = -0.00478 
   RDSWMIN =      0 
   RDSW =    100 
   ARDSW =      0 
   BRDSW =  1e-07 
   RSWMIN =      0 
   RSW =      0 
   ARSW =      0 
   BRSW =  1e-07 
   RDWMIN =      0 
   RDW =      0 
   ARDW =      0 
   BRDW =  1e-07 
   PRWG =      0 
   WR =      1 
   PRT =  0.001 
   PDIBL1 =    1.3 
   PDIBL2 = 0.0002 
   DROUT =   1.06 
   PVAG =      1 
   PCLM =    0.2 
   APCLM =      0 
   BPCLM =  1e-07 
   PCLMG =      0 
   VASAT =    0.6 
   PCLMCV =  0.013 
   PCLMGCV =      0 
   VASATCV =    0.2 
   RGEXT =      0 ohm
   RGFIN =  0.001 ohm
   RSHS =      0 ohm
   RSHD =      0 ohm
   HEPI = 9.5e-09 m
   TSILI =  9e-09 m
   RHOC = 1.5e-12 ohm/m^2
   RHORSD =      1 ohm/m
   RHOEXT =      1 ohm/m
   CRATIO =    0.5 
   DELTAPRSD =      0 m
   SDTERM = 0 
   LSP =  4e-09 m
   LDG =  3e-09 m
   EPSRSP =    3.9 
   TGATE =  9e-09 m
   TMASK =      0 m
   ASILIEND =      0 m^2
   ARSDEND =      0 m^2
   PRSDEND =      0 m
   NSDE =  3e+25 m^-3
   RGEOA =      1 
   RGEOB =      0 m^-1
   RGEOC =      0 m^-1
   RGEOD =      0 m^-1
   RGEOE =      0 m^-1
   CGEOA =      1 
   CGEOB =      0 m^-1
   CGEOC =      0 m^-1
   CGEOD =      0 m^-1
   CGEOE =      1 
   AIGBINV = 0.0111 (Fs^2/g)^0.5m^-1
   BIGBINV =   0.03 (Fs^2/g)^0.5m^-1
   CIGBINV =  0.006 V^-1
   EIGBINV =    1.1 V
   NIGBINV =    1.2 
   AIGBACC = 0.0149 
   BIGBACC = 0.000949 
   CIGBACC =  0.075 
   NIGBACC =      3 
   AIGC = 0.0136 (Fs^2/g)^0.5m^-1
   BIGC = 0.00171 (Fs^2/g)^0.5m^-1V^-1
   CIGC =  0.075 V^-1
   NIGC =      1 
   DLCIGS =      0 m
   AIGS = 0.0136 (Fs^2/g)^0.5m^-1
   BIGS = 0.00171 (Fs^2/g)^0.5m^-1V^-1
   CIGS =  0.075 V^-1
   DLCIGD =      0 m
   AIGD = 0.0136 (Fs^2/g)^0.5m^-1
   BIGD = 0.00171 (Fs^2/g)^0.5m^-1V^-1
   CIGD =  0.075 V^-1
   POXEDGE =      1 
   AGIDL = 5.729e-12 ohm^-1
   BGIDL =  3e+08 V/m
   EGIDL =    0.1 V
   AGISL = 5.729e-12 ohm^-1
   BGISL =  3e+08 V/m
   EGISL =    0.1 V
   ALPHA0 =      0 mV^-1
   ALPHA1 =      0 V^-1
   BETA0 =     30 V^-1
   ALPHAII =      0 
   BETAII0 =      0 V^-1
   BETAII1 =      0 
   BETAII2 =    0.1 V
   ESATII =  1e+07 V/m
   LII =  5e-10 V/m
   SII0 =    0.5 V^-1
   SII1 =    0.1 
   SII2 =      0 V
   SIID =      0 V
   EOTACC =  8e-10 m
   DELVFBACC =      0 V
   CFS = 2.56e-11 F/m
   CFD = 2.65e-11 F/m
   COVS = 2.5e-11 F/m
   COVD = 2.5e-11 F/m
   CGSO =      0 F/m
   CGDO =      0 F/m
   CGSL =      0 F/m
   CGDL =      0 F/m
   CKAPPAS =    0.6 V
   CKAPPAD =    0.6 V
   CGBO =      0 F/m
   CGBL =      0 F/m
   CKAPPAB =    0.6 V
   CSDESW =      0 F/m
   CJS = 0.0005 F/m^2
   CJD = 0.0005 F/m^2
   CJSWS =  5e-10 F/m
   CJSWD =  5e-10 F/m
   CJSWGS =      0 F/m
   CJSWGD =      0 F/m
   PBS =      1 V
   PBD =      1 V
   PBSWS =      1 V
   PBSWD =      1 V
   PBSWGS =      1 V
   PBSWGD =      1 V
   MJS, =    0.5 
   MJD =    0.5 
   MJSWS =   0.33 
   MJSWD =   0.33 
   MJSWGS =   0.33 
   MJSWGD =   0.33 
   SJS =      0 
   SJD =      0 
   SJSWS =      0 
   SJSWD =      0 
   SJSWGS =      0 
   SJSWGD =      0 
   MJS2 =  0.125 
   MJD2 =  0.125 
   MJSWS2 =   0.33 
   MJSWD2 =   0.33 
   MJSWGS2 =   0.33 
   MJSWGD2 =   0.33 
   JSS = 0.0001 A/m^2
   JSD = 0.0001 A/m^2
   JSWS =      0 A/m
   JSWD =      0 A/m
   JSWGS =      0 A/m
   JSWGD =      0 A/m
   NJS =      1 
   NJD =      1 
   IJTHSFWD =    0.1 A
   IJTHDFWD =    0.1 A
   IJTHSREV =    0.1 A
   IJTHDREV =    0.1 A
   BVS =     10 V
   BVD =     10 V
   XJBVS =      1 
   XJBVD =      1 
   JTSS =      0 A/m^2
   JTSD =      0 A/m^2
   JTSSWS =      0 A/m
   JTSSWD =      0 A/m
   JTSSWGS =      0 A/m
   JTSSWGD =      0 A/m
   JTWEFF =      0 m
   NJTS =     20 
   NJTSD =     20 
   NJTSSW =     20 
   NJTSSWD =     20 
   NJTSSWG =     20 
   NJTSSWGD =     20 
   VTSS =     10 V
   VTSD =     10 V
   VTSSWS =     10 V
   VTSSWD =     10 V
   VTSSWGS =     10 V
   VTSSWGD =     10 V
   LINTIGEN =      0 m
   NTGEN =      1 
   AIGEN =      0 m^-3V^-1
   BIGEN =      0 m^-3V^-3
   XRCRG1 =     12 
   XRCRG2 =      1 
   NSEG = 5 
   EF =      1 
   EM = 4.1e+07 V/m
   NOIA = 6.25e+39 eV^-1s^1-EFm^-3
   NOIB = 3.125e+24 eV^-1s^1-EFm^-1
   NOIC = 8.75e+07 eV^-1s^1-EFm
   NTNOI =      1 
   TNOM =  300.1 K
   TBGASUB = 0.000702 eV/K
   TBGBSUB =   1108 K
   KT1 =      0 V
   KT1L =      0 Vm
   IIT =   -0.5 
   TII =      0 
   TGIDL = -0.0003 K^-1
   IGT =    2.5 
   TCJ =      0 K^-1
   TCJSW =      0 K^-1
   TCJSWG =      0 K^-1
   TPB =      0 K^-1
   TPBSW =      0 K^-1
   TPBSWG =      0 K^-1
   XTIS =      3 
   XTID =      3 
   XTSS =   0.02 
   XTSD =   0.02 
   XTSSWS =   0.02 
   XTSSWD =   0.02 
   XTSSWGS =   0.02 
   XTSSWGD =   0.02 
   TNJTS =      0 
   TNJTSD =      0 
   TNJTSSW =      0 
   TNJTSSWD =      0 
   TNJTSSWG =      0 
   TNJTSSWGD =      0 
   RTH0 =   0.01 ohm
   CTH0 =  1e-05 F
   WTH0 =      0 m
   LNBODY =      0 
   NNBODY =      0 
   PNBODY =      0 
   LPHIG =      0 
   NPHIG =      0 
   PPHIG =      0 
   LNGATE =      0 
   NNGATE =      0 
   PNGATE =      0 
   LCIT =      0 
   NCIT =      0 
   PCIT =      0 
   LCDSC =      0 
   NCDSC =      0 
   PCDSC =      0 
   LCDSCD =      0 
   NCDSCD =      0 
   PCDSCD =      0 
   LCDSCDR =      0 
   NCDSCDR =      0 
   PCDSCDR =      0 
   LDVT0 =      0 
   NDVT0 =      0 
   PDVT0 =      0 
   LDVT1 =      0 
   NDVT1 =      0 
   PDVT1 =      0 
   LPHIN =      0 
   NPHIN =      0 
   PPHIN =      0 
   LETA0 =      0 
   NETA0 =      0 
   PETA0 =      0 
   LETA0R =      0 
   NETA0R =      0 
   PETA0R =      0 
   LDSUB =      0 
   NDSUB =      0 
   PDSUB =      0 
   LK1RSCE =      0 
   NK1RSCE =      0 
   PK1RSCE =      0 
   LLPE0 =      0 
   NLPE0 =      0 
   PLPE0 =      0 
   LQMFACTOR =      0 
   NQMFACTOR =      0 
   PQMFACTOR =      0 
   LQMTCENIV =      0 
   NQMTCENIV =      0 
   PQMTCENIV =      0 
   LQMTCENCV =      0 
   NQMTCENCV =      0 
   PQMTCENCV =      0 
   LVSAT =      0 
   NVSAT =      0 
   PVSAT =      0 
   LKSATIV =      0 
   NKSATIV =      0 
   PKSATIV =      0 
   LMEXP =      0 
   NMEXP =      0 
   PMEXP =      0 
   LPTWG =      0 
   NPTWG =      0 
   PPTWG =      0 
   LTHETASAT =      0 
   NTHETASAT =      0 
   PTHETASAT =      0 
   LU0 =      0 
   NU0 =      0 
   PU0 =      0 
   LUP =      0 
   NUP =      0 
   PUP =      0 
   LUA =      0 
   NUA =      0 
   PUA =      0 
   LEU =      0 
   NEU =      0 
   PEU =      0 
   LUD =      0 
   NUD =      0 
   PUD =      0 
   LUCS =      0 
   NUCS =      0 
   PUCS =      0 
   LPCLM =      0 
   NPCLM =      0 
   PPCLM =      0 
   LPCLMCV =      0 
   NPCLMCV =      0 
   PPCLMCV =      0 
   LRDSW =      0 
   NRDSW =      0 
   PRDSW =      0 
   LRSW =      0 
   NRSW =      0 
   PRSW =      0 
   LRDW =      0 
   NRDW =      0 
   PRDW =      0 
   LPRWG =      0 
   NPRWG =      0 
   PPRWG =      0 
   LWR =      0 
   NWR =      0 
   PWR =      0 
   LPDIBL1 =      0 
   NPDIBL1 =      0 
   PPDIBL1 =      0 
   LPDIBL2 =      0 
   NPDIBL2 =      0 
   PPDIBL2 =      0 
   LDROUT =      0 
   NDROUT =      0 
   PDROUT =      0 
   LPVAG =      0 
   NPVAG =      0 
   PPVAG =      0 
   LAIGBINV =      0 
   NAIGBINV =      0 
   PAIGBINV =      0 
   LBIGBINV =      0 
   NBIGBINV =      0 
   PBIGBINV =      0 
   LCIGBINV =      0 
   NCIGBINV =      0 
   PCIGBINV =      0 
   LEIGBINV =      0 
   NEIGBINV =      0 
   PEIGBINV =      0 
   LNIGBINV =      0 
   NNIGBINV =      0 
   PNIGBINV =      0 
   LAIGC =      0 
   NAIGC =      0 
   PAIGC =      0 
   LBIGC =      0 
   NBIGC =      0 
   PBIGC =      0 
   LCIGC =      0 
   NCIGC =      0 
   PCIGC =      0 
   LNIGC =      0 
   NNIGC =      0 
   PNIGC =      0 
   LAIGS =      0 
   NAIGS =      0 
   PAIGS =      0 
   LBIGS =      0 
   NBIGS =      0 
   PBIGS =      0 
   LCIGS =      0 
   NCIGS =      0 
   PCIGS =      0 
   LAIGD =      0 
   NAIGD =      0 
   PAIGD =      0 
   LBIGD =      0 
   NBIGD =      0 
   PBIGD =      0 
   LCIGD =      0 
   NCIGD =      0 
   PCIGD =      0 
   LPOXEDGE =      0 
   NPOXEDGE =      0 
   PPOXEDGE =      0 
   LAGIDL =      0 
   NAGIDL =      0 
   PAGIDL =      0 
   LBGIDL =      0 
   NBGIDL =      0 
   PBGIDL =      0 
   LEGIDL =      0 
   NEGIDL =      0 
   PEGIDL =      0 
   LAGISL =      0 
   NAGISL =      0 
   PAGISL =      0 
   LBGISL =      0 
   NBGISL =      0 
   PBGISL =      0 
   LEGISL =      0 
   NEGISL =      0 
   PEGISL =      0 
   LALPHA0 =      0 
   NALPHA0 =      0 
   PALPHA0 =      0 
   LALPHA1 =      0 
   NALPHA1 =      0 
   PALPHA1 =      0 
   LBETA0 =      0 
   NBETA0 =      0 
   PBETA0 =      0 
   LALPHAII =      0 
   NALPHAII =      0 
   PALPHAII =      0 
   LBETAII0 =      0 
   NBETAII0 =      0 
   PBETAII0 =      0 
   LBETAII1 =      0 
   NBETAII1 =      0 
   PBETAII1 =      0 
   LBETAII2 =      0 
   NBETAII2 =      0 
   PBETAII2 =      0 
   LESATII =      0 
   NESATII =      0 
   PESATII =      0 
   LLII =      0 
   NLII =      0 
   PLII =      0 
   LSII0 =      0 
   NSII0 =      0 
   PSII0 =      0 
   LSII1 =      0 
   NSII1 =      0 
   PSII1 =      0 
   LSII2 =      0 
   NSII2 =      0 
   PSII2 =      0 
   LSIID =      0 
   NSIID =      0 
   PSIID =      0 
   LCFS =      0 
   NCFS =      0 
   PCFS =      0 
   LCFD =      0 
   NCFD =      0 
   PCFD =      0 
   LCOVS =      0 
   NCOVS =      0 
   PCOVS =      0 
   LCOVD =      0 
   NCOVD =      0 
   PCOVD =      0 
   LCGSL =      0 
   NCGSL =      0 
   PCGSL =      0 
   LCGDL =      0 
   NCGDL =      0 
   PCGDL =      0 
   LCKAPPAS =      0 
   NCKAPPAS =      0 
   PCKAPPAS =      0 
   LCKAPPAD =      0 
   NCKAPPAD =      0 
   PCKAPPAD =      0 
   LCGBL =      0 
   NCGBL =      0 
   PCGBL =      0 
   LCKAPPAB =      0 
   NCKAPPAB =      0 
   PCKAPPAB =      0 
   LNTGEN =      0 
   NNTGEN =      0 
   PNTGEN =      0 
   LAIGEN =      0 
   NAIGEN =      0 
   PAIGEN =      0 
   LBIGEN =      0 
   NBIGEN =      0 
   PBIGEN =      0 
   LXRCRG1 =      0 
   NXRCRG1 =      0 
   PXRCRG1 =      0 
   LXRCRG2 =      0 
   NXRCRG2 =      0 
   PXRCRG2 =      0 
   LINTNOI =      0 
   NINTNOI =      0 
   PINTNOI =      0 
   LUTE =      0 
   NUTE =      0 
   PUTE =      0 
   LUTL =      0 
   NUTL =      0 
   PUTL =      0 
   LUA1 =      0 
   NUA1 =      0 
   PUA1 =      0 
   LUD1 =      0 
   NUD1 =      0 
   PUD1 =      0 
   LUCSTE =      0 
   NUCSTE =      0 
   PUCSTE =      0 
   LPTWGT =      0 
   NPTWGT =      0 
   PPTWGT =      0 
   LAT =      0 
   NAT =      0 
   PAT =      0 
   LSTTHETASAT =      0 
   NSTTHETASAT =      0 
   PSTTHETASAT =      0 
   LPRT =      0 
   NPRT =      0 
   PPRT =      0 
   LIIT =      0 
   NIIT =      0 
   PIIT =      0 
   LTII =      0 
   NTII =      0 
   PTII =      0 
   LTGIDL =      0 
   NTGIDL =      0 
   PTGIDL =      0 
   LIGT =      0 
   NIGT =      0 
   PIGT =      0 
   L =  2e-08 m
   D =  4e-08 m
   TFIN = 1.2e-08 m
   FPITCH = 4.2e-08 m
   NF = 1 
   NFIN = 1 
   NGCON = 1 
   ASEO =      0 m^2
   ADEO =      0 m^2
   PSEO =      0 m
   PDEO =      0 m
   ASEJ =      0 m^2
   ADEJ =      0 m^2
   PSEJ =      0 m
   PDEJ =      0 m
   CGSP =      0 F
   CGDP =      0 F
   CDSP =      0 F
   NRS =      0 
   NRD =      0 
   LRSD =  2e-08 m
   XL =      0 m
   DELVTRAND =      0 
   U0MULT =      1 
   IDS0MULT =      1 
   Lmin =  1e-08 m
   Lmax =  3e-08 m
   NFINmin = 0 
   NFINmax = 1 
   LVSAT1 =      0 
   NVSAT1 =      0 
   PVSAT1 =      0 
   LETAMOB =      0 
   NETAMOB =      0 
   PETAMOB =      0 
   LPCLMG =      0 
   NPCLMG =      0 
   PPCLMG =      0 
   LVASAT =      0 
   NVASAT =      0 
   PVASAT =      0 
   LAIGBACC =      0 
   NAIGBACC =      0 
   PAIGBACC =      0 
   LBIGBACC =      0 
   NBIGBACC =      0 
   PBIGBACC =      0 
   LCIGBACC =      0 
   NCIGBACC =      0 
   PCIGBACC =      0 
   LNIGBACC =      0 
   NNIGBACC =      0 
   PNIGBACC =      0 
  **info** (ptm16hp.sp:8) DC voltage reset to initial transient source value              in source        0:vin_0               new dc=  0.8500D+00
  
 **warning**  No DC path to ground from node        0:outin_30         defined in subckt 0               ; Connected by HSPICE with gdcpath


      
 **info** set option symb=1 internally to help for convergence.
 *****************************************************************
 ******  option summary
 ******
 runlvl  = 3         bypass  = 2         
  Opening plot unit= 15
 file=ptm16hp.pa0                                                              

 **info** dc convergence successful
 you can increase the efficiency of the
 operating point calculation by setting dcon= 1
 in the .option statement
1****** HSPICE -- F-2011.09-SP2 64-BIT (Feb 27 2012) linux ******               
 ******  
 $this uut was automatically generated by:

  ******  operating point information tnom=  25.000 temp=  25.000 *****
 ***** operating point status is voltage   simulation time is     0.     
     node    =voltage       node    =voltage       node    =voltage

 + 0:inb_0   = 850.0000m  0:inb_1   = 850.0000m  0:outb_00 = 849.2768m
 + 0:outb_10 = 849.2768m  0:outin_00= 599.0589u  0:outin_01= 599.0589u
 + 0:outin_10= 849.4156m  0:outin_11= 849.4156m  0:outin_20= 608.1247u
 + 0:outin_21= 608.1247u  0:outin_30=   8.8161m  0:outin_31=   8.8161m
 + 0:vdd     = 850.0000m

 ******  
 $this uut was automatically generated by:

  ******  transient analysis tnom=  25.000 temp=  25.000 *****
 inv_avg_power00=   7.1522u  from=   0.          to=   4.0000n
 peakpower00=   1.0645m    at=   2.0396n
             from=   0.         to=   4.0000n
 inv_avg_power10= 284.2076n  from=   0.          to=   4.0000n
 peakpower10=  31.1311u    at=   1.0877n
             from=   0.         to=   4.0000n
 inv_avg_power01=   4.5458u  from=   0.          to=   4.0000n
 peakpower01= 973.8075u    at=  42.7607p
             from=   0.         to=   4.0000n
 inv_avg_power11= 195.6090n  from=   0.          to=   4.0000n
 peakpower11=  28.0696u    at=  40.3184p
             from=   0.         to=   4.0000n
 source_power=  15.9891u  from=   0.          to=   4.0000n
 trf_delay_001=   3.1727p  targ=  33.8267p   trig=  30.6539p
 tfr_delay_001=   1.0421n  targ=   1.0820n   trig=  39.9751p
 trf_delay_002=   1.9923n  targ=   2.0331n   trig=  40.7908p
 tfr_delay_002=   2.0029n  targ=   3.0816n   trig=   1.0787n
 trf_delay_101=   1.6589p  targ=   1.0837n   trig=   1.0820n
 tfr_delay_101= 836.4418f  targ=  34.6631p   trig=  33.8267p
 trf_delay_102=-536.3139f  targ=   3.0810n   trig=   3.0816n
 tfr_delay_102= 998.3734f  targ=   2.0341n   trig=   2.0331n
 trf_delay_011=   3.1727p  targ=  33.8267p   trig=  30.6539p
 tfr_delay_011=   2.0427n  targ=   2.0827n   trig=  39.9751p
 trf_delay_111= 268.8221f  targ=   2.0829n   trig=   2.0827n
 tfr_delay_111= 836.4418f  targ=  34.6631p   trig=  33.8267p
x

        time    voltage      voltage    
                 outin_00     outin_10  
    0.          599.0589u    849.4156m  
   10.00000p     13.7711m    850.2108m  
   20.00000p     65.7886m    849.4836m  
   30.00000p    386.2952m    749.4564m  
   40.00000p    419.4611m     -1.3993   
   50.00000p      2.0080      -1.2734   
   60.00000p    935.1310m    -46.9032m  
   70.00000p    849.4595m    651.2917u  
   80.00000p    849.4792m    687.7477u  
   90.00000p    849.4190m    600.0065u  
  100.00000p    849.3665m    523.3434u  
  110.00000p    849.4100m    586.6053u  
  120.00000p    849.4534m    649.8672u  
  130.00000p    849.4895m    702.4034u  
  140.00000p    849.4673m    670.1178u  
  150.00000p    849.4451m    637.8322u  
  160.00000p    849.4229m    605.5466u  
  170.00000p    849.4007m    573.2610u  
  180.00000p    849.3785m    540.9755u  
  190.00000p    849.3582m    511.4864u  
  200.00000p    849.3698m    528.2508u  
  210.00000p    849.3813m    545.0152u  
  220.00000p    849.3928m    561.7796u  
  230.00000p    849.4044m    578.5440u  
  240.00000p    849.4159m    595.3084u  
  250.00000p    849.4274m    612.0728u  
  260.00000p    849.4389m    628.8373u  
  270.00000p    849.4505m    645.6017u  
  280.00000p    849.4620m    662.3661u  
  290.00000p    849.4735m    679.1305u  
  300.00000p    849.4851m    695.8949u  
  310.00000p    849.4882m    700.4768u  
  320.00000p    849.4811m    690.1355u  
  330.00000p    849.4740m    679.7943u  
  340.00000p    849.4669m    669.4530u  
  350.00000p    849.4598m    659.1117u  
  360.00000p    849.4526m    648.7705u  
  370.00000p    849.4455m    638.4292u  
  380.00000p    849.4384m    628.0880u  
  390.00000p    849.4313m    617.7467u  
  400.00000p    849.4242m    607.4054u  
  410.00000p    849.4171m    597.0642u  
  420.00000p    849.4100m    586.7229u  
  430.00000p    849.4028m    576.3816u  
  440.00000p    849.3957m    566.0404u  
  450.00000p    849.3886m    555.6991u  
  460.00000p    849.3815m    545.3578u  
  470.00000p    849.3744m    535.0166u  
  480.00000p    849.3673m    524.6753u  
  490.00000p    849.3602m    514.3341u  
  500.00000p    849.3624m    517.6316u  
  510.00000p    849.3691m    527.3176u  
  520.00000p    849.3758m    537.0036u  
  530.00000p    849.3824m    546.6896u  
  540.00000p    849.3891m    556.3756u  
  550.00000p    849.3957m    566.0615u  
  560.00000p    849.4024m    575.7475u  
  570.00000p    849.4091m    585.4335u  
  580.00000p    849.4157m    595.1195u  
  590.00000p    849.4224m    604.8055u  
  600.00000p    849.4291m    614.4915u  
  610.00000p    849.4357m    624.1774u  
  620.00000p    849.4424m    633.8634u  
  630.00000p    849.4491m    643.5494u  
  640.00000p    849.4557m    653.2354u  
  650.00000p    849.4624m    662.9214u  
  660.00000p    849.4691m    672.6074u  
  670.00000p    849.4757m    682.2933u  
  680.00000p    849.4824m    691.9793u  
  690.00000p    849.4891m    701.6653u  
  700.00000p    849.4867m    698.1710u  
  710.00000p    849.4800m    688.5029u  
  720.00000p    849.4733m    678.8349u  
  730.00000p    849.4667m    669.1669u  
  740.00000p    849.4600m    659.4989u  
  750.00000p    849.4534m    649.8309u  
  760.00000p    849.4467m    640.1628u  
  770.00000p    849.4401m    630.4948u  
  780.00000p    849.4334m    620.8268u  
  790.00000p    849.4268m    611.1588u  
  800.00000p    849.4201m    601.4908u  
  810.00000p    849.4135m    591.8227u  
  820.00000p    849.4068m    582.1547u  
  830.00000p    849.4001m    572.4867u  
  840.00000p    849.3935m    562.8187u  
  850.00000p    849.3868m    553.1507u  
  860.00000p    849.3802m    543.4826u  
  870.00000p    849.3735m    533.8146u  
  880.00000p    849.3669m    524.1466u  
  890.00000p    849.3602m    514.4786u  
  900.00000p    849.3639m    519.7744u  
  910.00000p    849.3723m    532.0793u  
  920.00000p    849.3808m    544.3842u  
  930.00000p    849.3893m    556.6891u  
  940.00000p    849.3978m    568.9940u  
  950.00000p    849.4062m    581.2989u  
  960.00000p    849.4147m    593.6038u  
  970.00000p    849.4232m    605.9087u  
  980.00000p    849.4316m    618.2136u  
  990.00000p    849.4401m    630.5185u  
    1.00000n    849.4486m    642.8234u  
    1.01000n    849.4571m    655.1283u  
    1.02000n    849.4655m    667.4332u  
    1.03000n    849.4740m    679.7380u  
    1.04000n    849.4825m    692.0429u  
    1.05000n    849.4909m    704.3478u  
    1.06000n    836.5434m   -223.0997u  
    1.07000n    727.7904m      9.8609m  
    1.08000n    348.8999m    254.7404m  
    1.09000n   -911.2109m      2.8569   
    1.10000n   -571.1354m      1.4353   
    1.11000n    407.2653u    849.7952m  
    1.12000n    617.8100u    849.4388m  
    1.13000n    598.7006u    849.4158m  
    1.14000n    567.3341u    849.3748m  
    1.15000n    586.6144u    849.3994m  
    1.16000n    605.8946u    849.4240m  
    1.17000n    625.1749u    849.4486m  
    1.18000n    629.2020u    849.4538m  
    1.19000n    620.2289u    849.4424m  
    1.20000n    611.2558u    849.4311m  
    1.21000n    602.2828u    849.4197m  
    1.22000n    593.3097u    849.4084m  
    1.23000n    584.3366u    849.3970m  
    1.24000n    575.3636u    849.3857m  
    1.25000n    566.3905u    849.3743m  
    1.26000n    567.2693u    849.3754m  
    1.27000n    571.6545u    849.3809m  
    1.28000n    576.0397u    849.3865m  
    1.29000n    580.4248u    849.3920m  
    1.30000n    584.8100u    849.3975m  
    1.31000n    589.1952u    849.4031m  
    1.32000n    593.5803u    849.4086m  
    1.33000n    597.9655u    849.4141m  
    1.34000n    602.3507u    849.4197m  
    1.35000n    606.7359u    849.4252m  
    1.36000n    611.1210u    849.4307m  
    1.37000n    615.5062u    849.4362m  
    1.38000n    619.8914u    849.4418m  
    1.39000n    624.2765u    849.4473m  
    1.40000n    628.6617u    849.4528m  
    1.41000n    633.0469u    849.4584m  
    1.42000n    631.4399u    849.4564m  
    1.43000n    627.9351u    849.4519m  
    1.44000n    624.4303u    849.4475m  
    1.45000n    620.9254u    849.4431m  
    1.46000n    617.4206u    849.4387m  
    1.47000n    613.9157u    849.4343m  
    1.48000n    610.4109u    849.4299m  
    1.49000n    606.9061u    849.4255m  
    1.50000n    603.4012u    849.4211m  
    1.51000n    599.8964u    849.4166m  
    1.52000n    596.3915u    849.4122m  
    1.53000n    592.8867u    849.4078m  
    1.54000n    589.3819u    849.4034m  
    1.55000n    585.8770u    849.3990m  
    1.56000n    582.3722u    849.3946m  
    1.57000n    578.8673u    849.3902m  
    1.58000n    575.3625u    849.3858m  
    1.59000n    571.8577u    849.3813m  
    1.60000n    568.3528u    849.3769m  
    1.61000n    564.8480u    849.3725m  
    1.62000n    566.6675u    849.3748m  
    1.63000n    570.1734u    849.3792m  
    1.64000n    573.6793u    849.3836m  
    1.65000n    577.1852u    849.3880m  
    1.66000n    580.6911u    849.3924m  
    1.67000n    584.1970u    849.3968m  
    1.68000n    587.7029u    849.4012m  
    1.69000n    591.2088u    849.4057m  
    1.70000n    594.7147u    849.4101m  
    1.71000n    598.2206u    849.4145m  
    1.72000n    601.7265u    849.4189m  
    1.73000n    605.2324u    849.4233m  
    1.74000n    608.7384u    849.4277m  
    1.75000n    612.2443u    849.4321m  
    1.76000n    615.7502u    849.4365m  
    1.77000n    619.2561u    849.4409m  
    1.78000n    622.7620u    849.4453m  
    1.79000n    626.2679u    849.4497m  
    1.80000n    629.7738u    849.4541m  
    1.81000n    633.2797u    849.4585m  
    1.82000n    631.2835u    849.4560m  
    1.83000n    627.5447u    849.4513m  
    1.84000n    623.8058u    849.4466m  
    1.85000n    620.0669u    849.4420m  
    1.86000n    616.3280u    849.4373m  
    1.87000n    612.5892u    849.4326m  
    1.88000n    608.8503u    849.4279m  
    1.89000n    605.1114u    849.4232m  
    1.90000n    601.3725u    849.4185m  
    1.91000n    597.6337u    849.4138m  
    1.92000n    593.8948u    849.4091m  
    1.93000n    590.1559u    849.4044m  
    1.94000n    586.4171u    849.3997m  
    1.95000n    582.6782u    849.3950m  
    1.96000n    578.9393u    849.3903m  
    1.97000n    575.2004u    849.3856m  
    1.98000n    571.4616u    849.3810m  
    1.99000n    567.7227u    849.3763m  
    2.00000n    563.9838u    849.3716m  
    2.01000n     12.8544m    850.2626m  
    2.02000n     67.4508m    846.3252m  
    2.03000n    417.1606m    613.6549m  
    2.04000n      1.2399      -2.1234   
    2.05000n      2.0129      -1.5306   
    2.06000n    853.2189m     -2.3227m  
    2.07000n    849.4199m    605.7609u  
    2.08000n    849.4199m    601.2271u  
    2.09000n    849.4244m    607.8298u  
    2.10000n    849.4245m    608.0736u  
    2.11000n    849.4246m    607.9837u  
    2.12000n    849.4246m    607.9836u  
    2.13000n    849.4246m    607.9836u  
    2.14000n    849.4246m    607.9836u  
    2.15000n    849.4246m    607.9836u  
    2.16000n    849.4246m    607.9836u  
    2.17000n    849.4246m    607.9836u  
    2.18000n    849.4246m    607.9836u  
    2.19000n    849.4246m    607.9836u  
    2.20000n    849.4246m    607.9836u  
    2.21000n    849.4246m    607.9836u  
    2.22000n    849.4246m    607.9836u  
    2.23000n    849.4246m    607.9836u  
    2.24000n    849.4246m    607.9836u  
    2.25000n    849.4246m    607.9836u  
    2.26000n    849.4246m    607.9836u  
    2.27000n    849.4246m    607.9836u  
    2.28000n    849.4246m    607.9836u  
    2.29000n    849.4246m    607.9836u  
    2.30000n    849.4246m    607.9836u  
    2.31000n    849.4246m    607.9836u  
    2.32000n    849.4246m    607.9836u  
    2.33000n    849.4246m    607.9836u  
    2.34000n    849.4246m    607.9836u  
    2.35000n    849.4246m    607.9836u  
    2.36000n    849.4246m    607.9836u  
    2.37000n    849.4246m    607.9836u  
    2.38000n    849.4246m    607.9836u  
    2.39000n    849.4246m    607.9836u  
    2.40000n    849.4246m    607.9836u  
    2.41000n    849.4246m    607.9836u  
    2.42000n    849.4246m    607.9836u  
    2.43000n    849.4246m    607.9836u  
    2.44000n    849.4246m    607.9836u  
    2.45000n    849.4246m    607.9836u  
    2.46000n    849.4246m    607.9836u  
    2.47000n    849.4246m    607.9836u  
    2.48000n    849.4246m    607.9836u  
    2.49000n    849.4246m    607.9836u  
    2.50000n    849.4246m    607.9836u  
    2.51000n    849.4246m    607.9836u  
    2.52000n    849.4246m    607.9836u  
    2.53000n    849.4246m    607.9836u  
    2.54000n    849.4246m    607.9836u  
    2.55000n    849.4246m    607.9836u  
    2.56000n    849.4246m    607.9836u  
    2.57000n    849.4246m    607.9836u  
    2.58000n    849.4246m    607.9836u  
    2.59000n    849.4246m    607.9836u  
    2.60000n    849.4246m    607.9836u  
    2.61000n    849.4246m    607.9836u  
    2.62000n    849.4246m    607.9836u  
    2.63000n    849.4246m    607.9836u  
    2.64000n    849.4246m    607.9836u  
    2.65000n    849.4246m    607.9836u  
    2.66000n    849.4246m    607.9836u  
    2.67000n    849.4246m    607.9836u  
    2.68000n    849.4246m    607.9836u  
    2.69000n    849.4246m    607.9836u  
    2.70000n    849.4246m    607.9836u  
    2.71000n    849.4246m    607.9836u  
    2.72000n    849.4246m    607.9836u  
    2.73000n    849.4246m    607.9836u  
    2.74000n    849.4246m    607.9836u  
    2.75000n    849.4246m    607.9836u  
    2.76000n    849.4246m    607.9836u  
    2.77000n    849.4246m    607.9836u  
    2.78000n    849.4246m    607.9836u  
    2.79000n    849.4246m    607.9836u  
    2.80000n    849.4246m    607.9836u  
    2.81000n    849.4246m    607.9836u  
    2.82000n    849.4246m    607.9836u  
    2.83000n    849.4246m    607.9836u  
    2.84000n    849.4246m    607.9836u  
    2.85000n    849.4246m    607.9836u  
    2.86000n    849.4246m    607.9836u  
    2.87000n    849.4246m    607.9836u  
    2.88000n    849.4246m    607.9836u  
    2.89000n    849.4246m    607.9836u  
    2.90000n    849.4246m    607.9836u  
    2.91000n    849.4246m    607.9836u  
    2.92000n    849.4246m    607.9836u  
    2.93000n    849.4246m    607.9836u  
    2.94000n    849.4246m    607.9836u  
    2.95000n    849.4246m    607.9836u  
    2.96000n    849.4246m    607.9836u  
    2.97000n    849.4246m    607.9836u  
    2.98000n    849.4246m    607.9836u  
    2.99000n    849.4246m    607.9836u  
    3.00000n    849.4246m    607.9836u  
    3.01000n    849.4246m    607.9836u  
    3.02000n    849.4246m    607.9836u  
    3.03000n    849.4246m    607.9836u  
    3.04000n    849.4246m    607.9836u  
    3.05000n    849.4246m    607.9836u  
    3.06000n    837.1837m   -252.9016u  
    3.07000n    644.1247m     31.4271m  
    3.08000n    342.0002m    295.8038m  
    3.09000n     29.1264m    845.3720m  
    3.10000n      5.6292m    849.1715m  
    3.11000n    572.0821u    849.4545m  
    3.12000n    609.1651u    849.4008m  
    3.13000n    599.8575u    849.4148m  
    3.14000n    588.7968u    849.4310m  
    3.15000n    594.1976u    849.4228m  
    3.16000n    599.5984u    849.4146m  
    3.17000n    604.9992u    849.4064m  
    3.18000n    609.9921u    849.3988m  
    3.19000n    608.3445u    849.4013m  
    3.20000n    606.6969u    849.4038m  
    3.21000n    605.0493u    849.4064m  
    3.22000n    603.4017u    849.4089m  
    3.23000n    601.7541u    849.4115m  
    3.24000n    600.1064u    849.4140m  
    3.25000n    598.4588u    849.4165m  
    3.26000n    596.8112u    849.4191m  
    3.27000n    595.1636u    849.4216m  
    3.28000n    593.5160u    849.4242m  
    3.29000n    591.8684u    849.4267m  
    3.30000n    590.2208u    849.4292m  
    3.31000n    588.5731u    849.4318m  
    3.32000n    589.4466u    849.4304m  
    3.33000n    590.4917u    849.4288m  
    3.34000n    591.5369u    849.4272m  
    3.35000n    592.5820u    849.4256m  
    3.36000n    593.6271u    849.4239m  
    3.37000n    594.6723u    849.4223m  
    3.38000n    595.7174u    849.4207m  
    3.39000n    596.7626u    849.4191m  
    3.40000n    597.8077u    849.4175m  
    3.41000n    598.8528u    849.4158m  
    3.42000n    599.8980u    849.4142m  
    3.43000n    600.9431u    849.4126m  
    3.44000n    601.9883u    849.4110m  
    3.45000n    603.0334u    849.4093m  
    3.46000n    604.0785u    849.4077m  
    3.47000n    605.1237u    849.4061m  
    3.48000n    606.1688u    849.4045m  
    3.49000n    607.2140u    849.4029m  
    3.50000n    608.2591u    849.4012m  
    3.51000n    609.3043u    849.3996m  
    3.52000n    608.4182u    849.4010m  
    3.53000n    607.4006u    849.4026m  
    3.54000n    606.3830u    849.4042m  
    3.55000n    605.3654u    849.4058m  
    3.56000n    604.3478u    849.4073m  
    3.57000n    603.3302u    849.4089m  
    3.58000n    602.3126u    849.4105m  
    3.59000n    601.2950u    849.4121m  
    3.60000n    600.2774u    849.4137m  
    3.61000n    599.2598u    849.4153m  
    3.62000n    598.2422u    849.4169m  
    3.63000n    597.2246u    849.4185m  
    3.64000n    596.2070u    849.4200m  
    3.65000n    595.1894u    849.4216m  
    3.66000n    594.1718u    849.4232m  
    3.67000n    593.1542u    849.4248m  
    3.68000n    592.1366u    849.4264m  
    3.69000n    591.1190u    849.4280m  
    3.70000n    590.1014u    849.4296m  
    3.71000n    589.0838u    849.4311m  
    3.72000n    589.9464u    849.4298m  
    3.73000n    590.9371u    849.4282m  
    3.74000n    591.9278u    849.4267m  
    3.75000n    592.9185u    849.4251m  
    3.76000n    593.9092u    849.4236m  
    3.77000n    594.8999u    849.4220m  
    3.78000n    595.8906u    849.4205m  
    3.79000n    596.8813u    849.4189m  
    3.80000n    597.8721u    849.4174m  
    3.81000n    598.8628u    849.4158m  
    3.82000n    599.8535u    849.4143m  
    3.83000n    600.8442u    849.4127m  
    3.84000n    601.8349u    849.4112m  
    3.85000n    602.8256u    849.4096m  
    3.86000n    603.8163u    849.4081m  
    3.87000n    604.8070u    849.4065m  
    3.88000n    605.7977u    849.4050m  
    3.89000n    606.7884u    849.4034m  
    3.90000n    607.7791u    849.4018m  
    3.91000n    608.7698u    849.4003m  
    3.92000n    606.8449u    849.4033m  
    3.93000n    604.7214u    849.4067m  
    3.94000n    602.5980u    849.4101m  
    3.95000n    600.4745u    849.4134m  
    3.96000n    598.3510u    849.4168m  
    3.97000n    596.2276u    849.4201m  
    3.98000n    594.1041u    849.4235m  
    3.99000n    591.9806u    849.4268m  
    4.00000n    589.8572u    849.4302m  
y
x

        time    voltage      voltage    
                 outin_10     outin_20  
    0.          849.4156m    608.1247u  
   10.00000p    850.2108m    644.1527u  
   20.00000p    849.4836m    531.5426u  
   30.00000p    749.4564m     -2.0081m  
   40.00000p     -1.3993     530.0971m  
   50.00000p     -1.2734     925.7392m  
   60.00000p    -46.9032m    863.6333m  
   70.00000p    651.2917u    849.4918m  
   80.00000p    687.7477u    849.5386m  
   90.00000p    600.0065u    849.4035m  
  100.00000p    523.3434u    849.2853m  
  110.00000p    586.6053u    849.3826m  
  120.00000p    649.8672u    849.4798m  
  130.00000p    702.4034u    849.5606m  
  140.00000p    670.1178u    849.5110m  
  150.00000p    637.8322u    849.4615m  
  160.00000p    605.5466u    849.4119m  
  170.00000p    573.2610u    849.3623m  
  180.00000p    540.9755u    849.3127m  
  190.00000p    511.4864u    849.2674m  
  200.00000p    528.2508u    849.2931m  
  210.00000p    545.0152u    849.3189m  
  220.00000p    561.7796u    849.3446m  
  230.00000p    578.5440u    849.3703m  
  240.00000p    595.3084u    849.3960m  
  250.00000p    612.0728u    849.4218m  
  260.00000p    628.8373u    849.4475m  
  270.00000p    645.6017u    849.4732m  
  280.00000p    662.3661u    849.4990m  
  290.00000p    679.1305u    849.5247m  
  300.00000p    695.8949u    849.5504m  
  310.00000p    700.4768u    849.5575m  
  320.00000p    690.1355u    849.5416m  
  330.00000p    679.7943u    849.5257m  
  340.00000p    669.4530u    849.5099m  
  350.00000p    659.1117u    849.4940m  
  360.00000p    648.7705u    849.4781m  
  370.00000p    638.4292u    849.4623m  
  380.00000p    628.0880u    849.4464m  
  390.00000p    617.7467u    849.4305m  
  400.00000p    607.4054u    849.4147m  
  410.00000p    597.0642u    849.3988m  
  420.00000p    586.7229u    849.3829m  
  430.00000p    576.3816u    849.3671m  
  440.00000p    566.0404u    849.3512m  
  450.00000p    555.6991u    849.3353m  
  460.00000p    545.3578u    849.3195m  
  470.00000p    535.0166u    849.3036m  
  480.00000p    524.6753u    849.2877m  
  490.00000p    514.3341u    849.2719m  
  500.00000p    517.6316u    849.2769m  
  510.00000p    527.3176u    849.2918m  
  520.00000p    537.0036u    849.3066m  
  530.00000p    546.6896u    849.3215m  
  540.00000p    556.3756u    849.3363m  
  550.00000p    566.0615u    849.3512m  
  560.00000p    575.7475u    849.3661m  
  570.00000p    585.4335u    849.3809m  
  580.00000p    595.1195u    849.3958m  
  590.00000p    604.8055u    849.4106m  
  600.00000p    614.4915u    849.4255m  
  610.00000p    624.1774u    849.4404m  
  620.00000p    633.8634u    849.4552m  
  630.00000p    643.5494u    849.4701m  
  640.00000p    653.2354u    849.4849m  
  650.00000p    662.9214u    849.4998m  
  660.00000p    672.6074u    849.5146m  
  670.00000p    682.2933u    849.5295m  
  680.00000p    691.9793u    849.5444m  
  690.00000p    701.6653u    849.5592m  
  700.00000p    698.1710u    849.5539m  
  710.00000p    688.5029u    849.5390m  
  720.00000p    678.8349u    849.5242m  
  730.00000p    669.1669u    849.5094m  
  740.00000p    659.4989u    849.4946m  
  750.00000p    649.8309u    849.4797m  
  760.00000p    640.1628u    849.4649m  
  770.00000p    630.4948u    849.4501m  
  780.00000p    620.8268u    849.4352m  
  790.00000p    611.1588u    849.4204m  
  800.00000p    601.4908u    849.4056m  
  810.00000p    591.8227u    849.3908m  
  820.00000p    582.1547u    849.3759m  
  830.00000p    572.4867u    849.3611m  
  840.00000p    562.8187u    849.3463m  
  850.00000p    553.1507u    849.3315m  
  860.00000p    543.4826u    849.3166m  
  870.00000p    533.8146u    849.3018m  
  880.00000p    524.1466u    849.2870m  
  890.00000p    514.4786u    849.2721m  
  900.00000p    519.7744u    849.2803m  
  910.00000p    532.0793u    849.2991m  
  920.00000p    544.3842u    849.3180m  
  930.00000p    556.6891u    849.3369m  
  940.00000p    568.9940u    849.3557m  
  950.00000p    581.2989u    849.3746m  
  960.00000p    593.6038u    849.3935m  
  970.00000p    605.9087u    849.4123m  
  980.00000p    618.2136u    849.4312m  
  990.00000p    630.5185u    849.4501m  
    1.00000n    642.8234u    849.4689m  
    1.01000n    655.1283u    849.4878m  
    1.02000n    667.4332u    849.5067m  
    1.03000n    679.7380u    849.5255m  
    1.04000n    692.0429u    849.5444m  
    1.05000n    704.3478u    849.5633m  
    1.06000n   -223.0997u    849.3245m  
    1.07000n      9.8609m    849.9751m  
    1.08000n    254.7404m    810.7080m  
    1.09000n      2.8569      59.6930m  
    1.10000n      1.4353     -56.5070m  
    1.11000n    849.7952m    514.9356u  
    1.12000n    849.4388m    645.2335u  
    1.13000n    849.4158m    607.5392u  
    1.14000n    849.3748m    545.0491u  
    1.15000n    849.3994m    583.3625u  
    1.16000n    849.4240m    621.6760u  
    1.17000n    849.4486m    659.9895u  
    1.18000n    849.4538m    667.9977u  
    1.19000n    849.4424m    650.1770u  
    1.20000n    849.4311m    632.3563u  
    1.21000n    849.4197m    614.5356u  
    1.22000n    849.4084m    596.7148u  
    1.23000n    849.3970m    578.8941u  
    1.24000n    849.3857m    561.0734u  
    1.25000n    849.3743m    543.2527u  
    1.26000n    849.3754m    544.9968u  
    1.27000n    849.3809m    553.7041u  
    1.28000n    849.3865m    562.4114u  
    1.29000n    849.3920m    571.1187u  
    1.30000n    849.3975m    579.8260u  
    1.31000n    849.4031m    588.5332u  
    1.32000n    849.4086m    597.2405u  
    1.33000n    849.4141m    605.9478u  
    1.34000n    849.4197m    614.6551u  
    1.35000n    849.4252m    623.3624u  
    1.36000n    849.4307m    632.0697u  
    1.37000n    849.4362m    640.7770u  
    1.38000n    849.4418m    649.4843u  
    1.39000n    849.4473m    658.1916u  
    1.40000n    849.4528m    666.8989u  
    1.41000n    849.4584m    675.6062u  
    1.42000n    849.4564m    672.4159u  
    1.43000n    849.4519m    665.4573u  
    1.44000n    849.4475m    658.4987u  
    1.45000n    849.4431m    651.5401u  
    1.46000n    849.4387m    644.5815u  
    1.47000n    849.4343m    637.6229u  
    1.48000n    849.4299m    630.6643u  
    1.49000n    849.4255m    623.7057u  
    1.50000n    849.4211m    616.7471u  
    1.51000n    849.4166m    609.7885u  
    1.52000n    849.4122m    602.8299u  
    1.53000n    849.4078m    595.8713u  
    1.54000n    849.4034m    588.9127u  
    1.55000n    849.3990m    581.9541u  
    1.56000n    849.3946m    574.9955u  
    1.57000n    849.3902m    568.0369u  
    1.58000n    849.3858m    561.0782u  
    1.59000n    849.3813m    554.1196u  
    1.60000n    849.3769m    547.1610u  
    1.61000n    849.3725m    540.2024u  
    1.62000n    849.3748m    543.8148u  
    1.63000n    849.3792m    550.7755u  
    1.64000n    849.3836m    557.7361u  
    1.65000n    849.3880m    564.6967u  
    1.66000n    849.3924m    571.6573u  
    1.67000n    849.3968m    578.6179u  
    1.68000n    849.4012m    585.5785u  
    1.69000n    849.4057m    592.5391u  
    1.70000n    849.4101m    599.4997u  
    1.71000n    849.4145m    606.4603u  
    1.72000n    849.4189m    613.4209u  
    1.73000n    849.4233m    620.3816u  
    1.74000n    849.4277m    627.3422u  
    1.75000n    849.4321m    634.3028u  
    1.76000n    849.4365m    641.2634u  
    1.77000n    849.4409m    648.2240u  
    1.78000n    849.4453m    655.1846u  
    1.79000n    849.4497m    662.1452u  
    1.80000n    849.4541m    669.1058u  
    1.81000n    849.4585m    676.0664u  
    1.82000n    849.4560m    672.1033u  
    1.83000n    849.4513m    664.6802u  
    1.84000n    849.4466m    657.2572u  
    1.85000n    849.4420m    649.8341u  
    1.86000n    849.4373m    642.4110u  
    1.87000n    849.4326m    634.9880u  
    1.88000n    849.4279m    627.5649u  
    1.89000n    849.4232m    620.1418u  
    1.90000n    849.4185m    612.7188u  
    1.91000n    849.4138m    605.2957u  
    1.92000n    849.4091m    597.8726u  
    1.93000n    849.4044m    590.4496u  
    1.94000n    849.3997m    583.0265u  
    1.95000n    849.3950m    575.6034u  
    1.96000n    849.3903m    568.1804u  
    1.97000n    849.3856m    560.7573u  
    1.98000n    849.3810m    553.3342u  
    1.99000n    849.3763m    545.9112u  
    2.00000n    849.3716m    538.4881u  
    2.01000n    850.2626m    668.3472u  
    2.02000n    846.3252m    960.6441u  
    2.03000n    613.6549m     27.7013m  
    2.04000n     -2.1234     555.6495m  
    2.05000n     -1.5306     878.3140m  
    2.06000n     -2.3227m    850.5574m  
    2.07000n    605.7609u    849.4093m  
    2.08000n    601.2271u    849.4030m  
    2.09000n    607.8298u    849.4151m  
    2.10000n    608.0736u    849.4155m  
    2.11000n    607.9837u    849.4155m  
    2.12000n    607.9836u    849.4155m  
    2.13000n    607.9836u    849.4155m  
    2.14000n    607.9836u    849.4155m  
    2.15000n    607.9836u    849.4155m  
    2.16000n    607.9836u    849.4155m  
    2.17000n    607.9836u    849.4155m  
    2.18000n    607.9836u    849.4155m  
    2.19000n    607.9836u    849.4155m  
    2.20000n    607.9836u    849.4155m  
    2.21000n    607.9836u    849.4155m  
    2.22000n    607.9836u    849.4155m  
    2.23000n    607.9836u    849.4155m  
    2.24000n    607.9836u    849.4155m  
    2.25000n    607.9836u    849.4155m  
    2.26000n    607.9836u    849.4155m  
    2.27000n    607.9836u    849.4155m  
    2.28000n    607.9836u    849.4155m  
    2.29000n    607.9836u    849.4155m  
    2.30000n    607.9836u    849.4155m  
    2.31000n    607.9836u    849.4155m  
    2.32000n    607.9836u    849.4155m  
    2.33000n    607.9836u    849.4155m  
    2.34000n    607.9836u    849.4155m  
    2.35000n    607.9836u    849.4155m  
    2.36000n    607.9836u    849.4155m  
    2.37000n    607.9836u    849.4155m  
    2.38000n    607.9836u    849.4155m  
    2.39000n    607.9836u    849.4155m  
    2.40000n    607.9836u    849.4155m  
    2.41000n    607.9836u    849.4155m  
    2.42000n    607.9836u    849.4155m  
    2.43000n    607.9836u    849.4155m  
    2.44000n    607.9836u    849.4155m  
    2.45000n    607.9836u    849.4155m  
    2.46000n    607.9836u    849.4155m  
    2.47000n    607.9836u    849.4155m  
    2.48000n    607.9836u    849.4155m  
    2.49000n    607.9836u    849.4155m  
    2.50000n    607.9836u    849.4155m  
    2.51000n    607.9836u    849.4155m  
    2.52000n    607.9836u    849.4155m  
    2.53000n    607.9836u    849.4155m  
    2.54000n    607.9836u    849.4155m  
    2.55000n    607.9836u    849.4155m  
    2.56000n    607.9836u    849.4155m  
    2.57000n    607.9836u    849.4155m  
    2.58000n    607.9836u    849.4155m  
    2.59000n    607.9836u    849.4155m  
    2.60000n    607.9836u    849.4155m  
    2.61000n    607.9836u    849.4155m  
    2.62000n    607.9836u    849.4155m  
    2.63000n    607.9836u    849.4155m  
    2.64000n    607.9836u    849.4155m  
    2.65000n    607.9836u    849.4155m  
    2.66000n    607.9836u    849.4155m  
    2.67000n    607.9836u    849.4155m  
    2.68000n    607.9836u    849.4155m  
    2.69000n    607.9836u    849.4155m  
    2.70000n    607.9836u    849.4155m  
    2.71000n    607.9836u    849.4155m  
    2.72000n    607.9836u    849.4155m  
    2.73000n    607.9836u    849.4155m  
    2.74000n    607.9836u    849.4155m  
    2.75000n    607.9836u    849.4155m  
    2.76000n    607.9836u    849.4155m  
    2.77000n    607.9836u    849.4155m  
    2.78000n    607.9836u    849.4155m  
    2.79000n    607.9836u    849.4155m  
    2.80000n    607.9836u    849.4155m  
    2.81000n    607.9836u    849.4155m  
    2.82000n    607.9836u    849.4155m  
    2.83000n    607.9836u    849.4155m  
    2.84000n    607.9836u    849.4155m  
    2.85000n    607.9836u    849.4155m  
    2.86000n    607.9836u    849.4155m  
    2.87000n    607.9836u    849.4155m  
    2.88000n    607.9836u    849.4155m  
    2.89000n    607.9836u    849.4155m  
    2.90000n    607.9836u    849.4155m  
    2.91000n    607.9836u    849.4155m  
    2.92000n    607.9836u    849.4155m  
    2.93000n    607.9836u    849.4155m  
    2.94000n    607.9836u    849.4155m  
    2.95000n    607.9836u    849.4155m  
    2.96000n    607.9836u    849.4155m  
    2.97000n    607.9836u    849.4155m  
    2.98000n    607.9836u    849.4155m  
    2.99000n    607.9836u    849.4155m  
    3.00000n    607.9836u    849.4155m  
    3.01000n    607.9836u    849.4155m  
    3.02000n    607.9836u    849.4155m  
    3.03000n    607.9836u    849.4155m  
    3.04000n    607.9836u    849.4155m  
    3.05000n    607.9836u    849.4155m  
    3.06000n   -252.9016u    849.3136m  
    3.07000n     31.4271m    850.0066m  
    3.08000n    295.8038m    536.5027m  
    3.09000n    845.3720m      1.0601m  
    3.10000n    849.1715m    773.6289u  
    3.11000n    849.4545m    614.7664u  
    3.12000n    849.4008m    601.4702u  
    3.13000n    849.4148m    610.1116u  
    3.14000n    849.4310m    616.8739u  
    3.15000n    849.4228m    611.8645u  
    3.16000n    849.4146m    606.8551u  
    3.17000n    849.4064m    601.8458u  
    3.18000n    849.3988m    597.2236u  
    3.19000n    849.4013m    598.9050u  
    3.20000n    849.4038m    600.5864u  
    3.21000n    849.4064m    602.2678u  
    3.22000n    849.4089m    603.9492u  
    3.23000n    849.4115m    605.6306u  
    3.24000n    849.4140m    607.3120u  
    3.25000n    849.4165m    608.9934u  
    3.26000n    849.4191m    610.6748u  
    3.27000n    849.4216m    612.3562u  
    3.28000n    849.4242m    614.0376u  
    3.29000n    849.4267m    615.7190u  
    3.30000n    849.4292m    617.4004u  
    3.31000n    849.4318m    619.0818u  
    3.32000n    849.4304m    618.1512u  
    3.33000n    849.4288m    617.0428u  
    3.34000n    849.4272m    615.9343u  
    3.35000n    849.4256m    614.8259u  
    3.36000n    849.4239m    613.7175u  
    3.37000n    849.4223m    612.6090u  
    3.38000n    849.4207m    611.5006u  
    3.39000n    849.4191m    610.3922u  
    3.40000n    849.4175m    609.2837u  
    3.41000n    849.4158m    608.1753u  
    3.42000n    849.4142m    607.0669u  
    3.43000n    849.4126m    605.9584u  
    3.44000n    849.4110m    604.8500u  
    3.45000n    849.4093m    603.7416u  
    3.46000n    849.4077m    602.6331u  
    3.47000n    849.4061m    601.5247u  
    3.48000n    849.4045m    600.4162u  
    3.49000n    849.4029m    599.3078u  
    3.50000n    849.4012m    598.1994u  
    3.51000n    849.3996m    597.0909u  
    3.52000n    849.4010m    598.0617u  
    3.53000n    849.4026m    599.1741u  
    3.54000n    849.4042m    600.2864u  
    3.55000n    849.4058m    601.3988u  
    3.56000n    849.4073m    602.5112u  
    3.57000n    849.4089m    603.6235u  
    3.58000n    849.4105m    604.7359u  
    3.59000n    849.4121m    605.8483u  
    3.60000n    849.4137m    606.9606u  
    3.61000n    849.4153m    608.0730u  
    3.62000n    849.4169m    609.1854u  
    3.63000n    849.4185m    610.2977u  
    3.64000n    849.4200m    611.4101u  
    3.65000n    849.4216m    612.5225u  
    3.66000n    849.4232m    613.6348u  
    3.67000n    849.4248m    614.7472u  
    3.68000n    849.4264m    615.8596u  
    3.69000n    849.4280m    616.9719u  
    3.70000n    849.4296m    618.0843u  
    3.71000n    849.4311m    619.1967u  
    3.72000n    849.4298m    618.2227u  
    3.73000n    849.4282m    617.1067u  
    3.74000n    849.4267m    615.9906u  
    3.75000n    849.4251m    614.8746u  
    3.76000n    849.4236m    613.7585u  
    3.77000n    849.4220m    612.6425u  
    3.78000n    849.4205m    611.5264u  
    3.79000n    849.4189m    610.4104u  
    3.80000n    849.4174m    609.2943u  
    3.81000n    849.4158m    608.1782u  
    3.82000n    849.4143m    607.0622u  
    3.83000n    849.4127m    605.9461u  
    3.84000n    849.4112m    604.8301u  
    3.85000n    849.4096m    603.7140u  
    3.86000n    849.4081m    602.5980u  
    3.87000n    849.4065m    601.4819u  
    3.88000n    849.4050m    600.3659u  
    3.89000n    849.4034m    599.2498u  
    3.90000n    849.4018m    598.1338u  
    3.91000n    849.4003m    597.0177u  
    3.92000n    849.4033m    599.2964u  
    3.93000n    849.4067m    601.8063u  
    3.94000n    849.4101m    604.3162u  
    3.95000n    849.4134m    606.8261u  
    3.96000n    849.4168m    609.3359u  
    3.97000n    849.4201m    611.8458u  
    3.98000n    849.4235m    614.3557u  
    3.99000n    849.4268m    616.8656u  
    4.00000n    849.4302m    619.3755u  
y
x

        time    voltage      voltage    
                 outin_01     outin_11  
    0.          599.0589u    849.4156m  
   10.00000p     13.7711m    850.2108m  
   20.00000p     65.7886m    849.4836m  
   30.00000p    386.2952m    749.4564m  
   40.00000p    419.4611m     -1.3993   
   50.00000p      2.0080      -1.2734   
   60.00000p    935.1310m    -46.9032m  
   70.00000p    849.4595m    651.2917u  
   80.00000p    849.4792m    687.7477u  
   90.00000p    849.4190m    600.0065u  
  100.00000p    849.3665m    523.3434u  
  110.00000p    849.4100m    586.6053u  
  120.00000p    849.4534m    649.8672u  
  130.00000p    849.4895m    702.4034u  
  140.00000p    849.4673m    670.1178u  
  150.00000p    849.4451m    637.8322u  
  160.00000p    849.4229m    605.5466u  
  170.00000p    849.4007m    573.2610u  
  180.00000p    849.3785m    540.9755u  
  190.00000p    849.3582m    511.4864u  
  200.00000p    849.3698m    528.2508u  
  210.00000p    849.3813m    545.0152u  
  220.00000p    849.3928m    561.7796u  
  230.00000p    849.4044m    578.5440u  
  240.00000p    849.4159m    595.3084u  
  250.00000p    849.4274m    612.0728u  
  260.00000p    849.4389m    628.8373u  
  270.00000p    849.4505m    645.6017u  
  280.00000p    849.4620m    662.3661u  
  290.00000p    849.4735m    679.1305u  
  300.00000p    849.4851m    695.8949u  
  310.00000p    849.4882m    700.4768u  
  320.00000p    849.4811m    690.1355u  
  330.00000p    849.4740m    679.7943u  
  340.00000p    849.4669m    669.4530u  
  350.00000p    849.4598m    659.1117u  
  360.00000p    849.4526m    648.7705u  
  370.00000p    849.4455m    638.4292u  
  380.00000p    849.4384m    628.0880u  
  390.00000p    849.4313m    617.7467u  
  400.00000p    849.4242m    607.4054u  
  410.00000p    849.4171m    597.0642u  
  420.00000p    849.4100m    586.7229u  
  430.00000p    849.4028m    576.3816u  
  440.00000p    849.3957m    566.0404u  
  450.00000p    849.3886m    555.6991u  
  460.00000p    849.3815m    545.3578u  
  470.00000p    849.3744m    535.0166u  
  480.00000p    849.3673m    524.6753u  
  490.00000p    849.3602m    514.3341u  
  500.00000p    849.3624m    517.6316u  
  510.00000p    849.3691m    527.3176u  
  520.00000p    849.3758m    537.0036u  
  530.00000p    849.3824m    546.6896u  
  540.00000p    849.3891m    556.3756u  
  550.00000p    849.3957m    566.0615u  
  560.00000p    849.4024m    575.7475u  
  570.00000p    849.4091m    585.4335u  
  580.00000p    849.4157m    595.1195u  
  590.00000p    849.4224m    604.8055u  
  600.00000p    849.4291m    614.4915u  
  610.00000p    849.4357m    624.1774u  
  620.00000p    849.4424m    633.8634u  
  630.00000p    849.4491m    643.5494u  
  640.00000p    849.4557m    653.2354u  
  650.00000p    849.4624m    662.9214u  
  660.00000p    849.4691m    672.6074u  
  670.00000p    849.4757m    682.2933u  
  680.00000p    849.4824m    691.9793u  
  690.00000p    849.4891m    701.6653u  
  700.00000p    849.4867m    698.1710u  
  710.00000p    849.4800m    688.5029u  
  720.00000p    849.4733m    678.8349u  
  730.00000p    849.4667m    669.1669u  
  740.00000p    849.4600m    659.4989u  
  750.00000p    849.4534m    649.8309u  
  760.00000p    849.4467m    640.1628u  
  770.00000p    849.4401m    630.4948u  
  780.00000p    849.4334m    620.8268u  
  790.00000p    849.4268m    611.1588u  
  800.00000p    849.4201m    601.4908u  
  810.00000p    849.4135m    591.8227u  
  820.00000p    849.4068m    582.1547u  
  830.00000p    849.4001m    572.4867u  
  840.00000p    849.3935m    562.8187u  
  850.00000p    849.3868m    553.1507u  
  860.00000p    849.3802m    543.4826u  
  870.00000p    849.3735m    533.8146u  
  880.00000p    849.3669m    524.1466u  
  890.00000p    849.3602m    514.4786u  
  900.00000p    849.3639m    519.7744u  
  910.00000p    849.3723m    532.0793u  
  920.00000p    849.3808m    544.3842u  
  930.00000p    849.3893m    556.6891u  
  940.00000p    849.3978m    568.9940u  
  950.00000p    849.4062m    581.2989u  
  960.00000p    849.4147m    593.6038u  
  970.00000p    849.4232m    605.9087u  
  980.00000p    849.4316m    618.2136u  
  990.00000p    849.4401m    630.5185u  
    1.00000n    849.4486m    642.8234u  
    1.01000n    849.4571m    655.1283u  
    1.02000n    849.4655m    667.4332u  
    1.03000n    849.4740m    679.7380u  
    1.04000n    849.4825m    692.0429u  
    1.05000n    849.4909m    704.3478u  
    1.06000n    849.4242m    607.3975u  
    1.07000n    849.4246m    607.9996u  
    1.08000n    849.4246m    607.9865u  
    1.09000n    849.4246m    607.9857u  
    1.10000n    849.4246m    607.9836u  
    1.11000n    849.4246m    607.9836u  
    1.12000n    849.4246m    607.9836u  
    1.13000n    849.4246m    607.9836u  
    1.14000n    849.4246m    607.9836u  
    1.15000n    849.4246m    607.9836u  
    1.16000n    849.4246m    607.9836u  
    1.17000n    849.4246m    607.9836u  
    1.18000n    849.4246m    607.9836u  
    1.19000n    849.4246m    607.9836u  
    1.20000n    849.4246m    607.9836u  
    1.21000n    849.4246m    607.9836u  
    1.22000n    849.4246m    607.9836u  
    1.23000n    849.4246m    607.9836u  
    1.24000n    849.4246m    607.9836u  
    1.25000n    849.4246m    607.9836u  
    1.26000n    849.4246m    607.9836u  
    1.27000n    849.4246m    607.9836u  
    1.28000n    849.4246m    607.9836u  
    1.29000n    849.4246m    607.9836u  
    1.30000n    849.4246m    607.9836u  
    1.31000n    849.4246m    607.9836u  
    1.32000n    849.4246m    607.9836u  
    1.33000n    849.4246m    607.9836u  
    1.34000n    849.4246m    607.9836u  
    1.35000n    849.4246m    607.9836u  
    1.36000n    849.4246m    607.9836u  
    1.37000n    849.4246m    607.9836u  
    1.38000n    849.4246m    607.9836u  
    1.39000n    849.4246m    607.9836u  
    1.40000n    849.4246m    607.9836u  
    1.41000n    849.4246m    607.9836u  
    1.42000n    849.4246m    607.9836u  
    1.43000n    849.4246m    607.9836u  
    1.44000n    849.4246m    607.9836u  
    1.45000n    849.4246m    607.9836u  
    1.46000n    849.4246m    607.9836u  
    1.47000n    849.4246m    607.9836u  
    1.48000n    849.4246m    607.9836u  
    1.49000n    849.4246m    607.9836u  
    1.50000n    849.4246m    607.9836u  
    1.51000n    849.4246m    607.9836u  
    1.52000n    849.4246m    607.9836u  
    1.53000n    849.4246m    607.9836u  
    1.54000n    849.4246m    607.9836u  
    1.55000n    849.4246m    607.9836u  
    1.56000n    849.4246m    607.9836u  
    1.57000n    849.4246m    607.9836u  
    1.58000n    849.4246m    607.9836u  
    1.59000n    849.4246m    607.9836u  
    1.60000n    849.4246m    607.9836u  
    1.61000n    849.4246m    607.9836u  
    1.62000n    849.4246m    607.9836u  
    1.63000n    849.4246m    607.9836u  
    1.64000n    849.4246m    607.9836u  
    1.65000n    849.4246m    607.9836u  
    1.66000n    849.4246m    607.9836u  
    1.67000n    849.4246m    607.9836u  
    1.68000n    849.4246m    607.9836u  
    1.69000n    849.4246m    607.9836u  
    1.70000n    849.4246m    607.9836u  
    1.71000n    849.4246m    607.9836u  
    1.72000n    849.4246m    607.9836u  
    1.73000n    849.4246m    607.9836u  
    1.74000n    849.4246m    607.9836u  
    1.75000n    849.4246m    607.9836u  
    1.76000n    849.4246m    607.9836u  
    1.77000n    849.4246m    607.9836u  
    1.78000n    849.4246m    607.9836u  
    1.79000n    849.4246m    607.9836u  
    1.80000n    849.4246m    607.9836u  
    1.81000n    849.4246m    607.9836u  
    1.82000n    849.4246m    607.9836u  
    1.83000n    849.4246m    607.9836u  
    1.84000n    849.4246m    607.9836u  
    1.85000n    849.4246m    607.9836u  
    1.86000n    849.4246m    607.9836u  
    1.87000n    849.4246m    607.9836u  
    1.88000n    849.4246m    607.9836u  
    1.89000n    849.4246m    607.9836u  
    1.90000n    849.4246m    607.9836u  
    1.91000n    849.4246m    607.9836u  
    1.92000n    849.4246m    607.9836u  
    1.93000n    849.4246m    607.9836u  
    1.94000n    849.4246m    607.9836u  
    1.95000n    849.4246m    607.9836u  
    1.96000n    849.4246m    607.9836u  
    1.97000n    849.4246m    607.9836u  
    1.98000n    849.4246m    607.9836u  
    1.99000n    849.4246m    607.9836u  
    2.00000n    849.4246m    607.9836u  
    2.01000n    849.4246m    607.9836u  
    2.02000n    849.4246m    607.9836u  
    2.03000n    849.4246m    607.9836u  
    2.04000n    849.4246m    607.9836u  
    2.05000n    849.4246m    607.9836u  
    2.06000n    838.0339m   -382.1930u  
    2.07000n    738.7678m      5.6055m  
    2.08000n    360.0980m    199.5544m  
    2.09000n    171.7545m      2.7868   
    2.10000n   -915.6667m      1.8510   
    2.11000n    255.8269u    850.0782m  
    2.12000n    597.1479u    849.4146m  
    2.13000n    599.7854u    849.4162m  
    2.14000n    602.7449u    849.4163m  
    2.15000n    600.6611u    849.4158m  
    2.16000n    598.5773u    849.4153m  
    2.17000n    596.4935u    849.4148m  
    2.18000n    594.6053u    849.4143m  
    2.19000n    595.2434u    849.4145m  
    2.20000n    595.8815u    849.4147m  
    2.21000n    596.5196u    849.4149m  
    2.22000n    597.1578u    849.4151m  
    2.23000n    597.7959u    849.4152m  
    2.24000n    598.4340u    849.4154m  
    2.25000n    599.0722u    849.4156m  
    2.26000n    599.7103u    849.4158m  
    2.27000n    600.3484u    849.4160m  
    2.28000n    600.9865u    849.4161m  
    2.29000n    601.6247u    849.4163m  
    2.30000n    602.2628u    849.4165m  
    2.31000n    602.9009u    849.4167m  
    2.32000n    603.5020u    849.4169m  
    2.33000n    603.0578u    849.4167m  
    2.34000n    602.6135u    849.4166m  
    2.35000n    602.1693u    849.4165m  
    2.36000n    601.7250u    849.4163m  
    2.37000n    601.2808u    849.4162m  
    2.38000n    600.8365u    849.4161m  
    2.39000n    600.3923u    849.4159m  
    2.40000n    599.9480u    849.4158m  
    2.41000n    599.5038u    849.4157m  
    2.42000n    599.0595u    849.4155m  
    2.43000n    598.6153u    849.4154m  
    2.44000n    598.1710u    849.4153m  
    2.45000n    597.7268u    849.4151m  
    2.46000n    597.2826u    849.4150m  
    2.47000n    596.8383u    849.4149m  
    2.48000n    596.3941u    849.4147m  
    2.49000n    595.9498u    849.4146m  
    2.50000n    595.5056u    849.4145m  
    2.51000n    595.0613u    849.4143m  
    2.52000n    594.6474u    849.4142m  
    2.53000n    595.0887u    849.4143m  
    2.54000n    595.5300u    849.4145m  
    2.55000n    595.9713u    849.4146m  
    2.56000n    596.4126u    849.4148m  
    2.57000n    596.8539u    849.4149m  
    2.58000n    597.2952u    849.4150m  
    2.59000n    597.7365u    849.4152m  
    2.60000n    598.1778u    849.4153m  
    2.61000n    598.6191u    849.4154m  
    2.62000n    599.0604u    849.4156m  
    2.63000n    599.5017u    849.4157m  
    2.64000n    599.9430u    849.4159m  
    2.65000n    600.3843u    849.4160m  
    2.66000n    600.8256u    849.4161m  
    2.67000n    601.2669u    849.4163m  
    2.68000n    601.7082u    849.4164m  
    2.69000n    602.1495u    849.4165m  
    2.70000n    602.5908u    849.4167m  
    2.71000n    603.0321u    849.4168m  
    2.72000n    603.4433u    849.4169m  
    2.73000n    603.0048u    849.4168m  
    2.74000n    602.5662u    849.4167m  
    2.75000n    602.1276u    849.4165m  
    2.76000n    601.6890u    849.4164m  
    2.77000n    601.2504u    849.4162m  
    2.78000n    600.8119u    849.4161m  
    2.79000n    600.3733u    849.4160m  
    2.80000n    599.9347u    849.4158m  
    2.81000n    599.4961u    849.4157m  
    2.82000n    599.0575u    849.4155m  
    2.83000n    598.6190u    849.4154m  
    2.84000n    598.1804u    849.4152m  
    2.85000n    597.7418u    849.4151m  
    2.86000n    597.3032u    849.4150m  
    2.87000n    596.8646u    849.4148m  
    2.88000n    596.4261u    849.4147m  
    2.89000n    595.9875u    849.4145m  
    2.90000n    595.5489u    849.4144m  
    2.91000n    595.1103u    849.4142m  
    2.92000n    594.7096u    849.4141m  
    2.93000n    595.3774u    849.4143m  
    2.94000n    596.0452u    849.4146m  
    2.95000n    596.7130u    849.4148m  
    2.96000n    597.3809u    849.4150m  
    2.97000n    598.0487u    849.4152m  
    2.98000n    598.7165u    849.4155m  
    2.99000n    599.3843u    849.4157m  
    3.00000n    600.0521u    849.4159m  
    3.01000n    600.7199u    849.4162m  
    3.02000n    601.3878u    849.4164m  
    3.03000n    602.0556u    849.4166m  
    3.04000n    602.7234u    849.4168m  
    3.05000n    603.3912u    849.4171m  
    3.06000n    599.0568u    849.4156m  
    3.07000n    599.0588u    849.4155m  
    3.08000n    599.0748u    849.4155m  
[...]
    3.65000n    599.0589u    849.4156m  
    3.66000n    599.0589u    849.4156m  
    3.67000n    599.0590u    849.4156m  
    3.68000n    599.0590u    849.4156m  
    3.69000n    599.0590u    849.4156m  
    3.70000n    599.0590u    849.4156m  
    3.71000n    599.0590u    849.4156m  
    3.72000n    599.0590u    849.4156m  
    3.73000n    599.0590u    849.4156m  
    3.74000n    599.0590u    849.4156m  
    3.75000n    599.0590u    849.4156m  
    3.76000n    599.0589u    849.4156m  
    3.77000n    599.0589u    849.4156m  
    3.78000n    599.0589u    849.4156m  
    3.79000n    599.0589u    849.4156m  
    3.80000n    599.0589u    849.4156m  
    3.81000n    599.0589u    849.4156m  
    3.82000n    599.0589u    849.4156m  
    3.83000n    599.0589u    849.4156m  
    3.84000n    599.0589u    849.4156m  
    3.85000n    599.0589u    849.4156m  
    3.86000n    599.0589u    849.4156m  
    3.87000n    599.0589u    849.4156m  
    3.88000n    599.0589u    849.4156m  
    3.89000n    599.0589u    849.4156m  
    3.90000n    599.0589u    849.4156m  
    3.91000n    599.0589u    849.4156m  
    3.92000n    599.0589u    849.4156m  
    3.93000n    599.0589u    849.4156m  
    3.94000n    599.0589u    849.4156m  
    3.95000n    599.0589u    849.4156m  
    3.96000n    599.0589u    849.4156m  
    3.97000n    599.0589u    849.4156m  
    3.98000n    599.0590u    849.4156m  
    3.99000n    599.0590u    849.4156m  
    4.00000n    599.0590u    849.4156m  
y
x

        time    voltage      voltage    
                 outin_11     outin_21  
    0.          849.4156m    608.1247u  
   10.00000p    850.2108m    644.1527u  
   20.00000p    849.4836m    531.5426u  
   30.00000p    749.4564m     -2.0081m  
   40.00000p     -1.3993     530.0971m  
   50.00000p     -1.2734     925.7392m  
   60.00000p    -46.9032m    863.6333m  
   70.00000p    651.2917u    849.4918m  
   80.00000p    687.7477u    849.5386m  
   90.00000p    600.0065u    849.4035m  
  100.00000p    523.3434u    849.2853m  
  110.00000p    586.6053u    849.3826m  
  120.00000p    649.8672u    849.4798m  
  130.00000p    702.4034u    849.5606m  
  140.00000p    670.1178u    849.5110m  
  150.00000p    637.8322u    849.4615m  
  160.00000p    605.5466u    849.4119m  
  170.00000p    573.2610u    849.3623m  
  180.00000p    540.9755u    849.3127m  
  190.00000p    511.4864u    849.2674m  
  200.00000p    528.2508u    849.2931m  
  210.00000p    545.0152u    849.3189m  
  220.00000p    561.7796u    849.3446m  
  230.00000p    578.5440u    849.3703m  
  240.00000p    595.3084u    849.3960m  
  250.00000p    612.0728u    849.4218m  
  260.00000p    628.8373u    849.4475m  
  270.00000p    645.6017u    849.4732m  
  280.00000p    662.3661u    849.4990m  
  290.00000p    679.1305u    849.5247m  
  300.00000p    695.8949u    849.5504m  
  310.00000p    700.4768u    849.5575m  
  320.00000p    690.1355u    849.5416m  
  330.00000p    679.7943u    849.5257m  
  340.00000p    669.4530u    849.5099m  
  350.00000p    659.1117u    849.4940m  
  360.00000p    648.7705u    849.4781m  
  370.00000p    638.4292u    849.4623m  
  380.00000p    628.0880u    849.4464m  
  390.00000p    617.7467u    849.4305m  
  400.00000p    607.4054u    849.4147m  
  410.00000p    597.0642u    849.3988m  
  420.00000p    586.7229u    849.3829m  
  430.00000p    576.3816u    849.3671m  
  440.00000p    566.0404u    849.3512m  
  450.00000p    555.6991u    849.3353m  
  460.00000p    545.3578u    849.3195m  
  470.00000p    535.0166u    849.3036m  
  480.00000p    524.6753u    849.2877m  
  490.00000p    514.3341u    849.2719m  
  500.00000p    517.6316u    849.2769m  
  510.00000p    527.3176u    849.2918m  
  520.00000p    537.0036u    849.3066m  
  530.00000p    546.6896u    849.3215m  
  540.00000p    556.3756u    849.3363m  
  550.00000p    566.0615u    849.3512m  
  560.00000p    575.7475u    849.3661m  
  570.00000p    585.4335u    849.3809m  
  580.00000p    595.1195u    849.3958m  
  590.00000p    604.8055u    849.4106m  
  600.00000p    614.4915u    849.4255m  
  610.00000p    624.1774u    849.4404m  
  620.00000p    633.8634u    849.4552m  
  630.00000p    643.5494u    849.4701m  
  640.00000p    653.2354u    849.4849m  
  650.00000p    662.9214u    849.4998m  
  660.00000p    672.6074u    849.5146m  
  670.00000p    682.2933u    849.5295m  
  680.00000p    691.9793u    849.5444m  
  690.00000p    701.6653u    849.5592m  
  700.00000p    698.1710u    849.5539m  
  710.00000p    688.5029u    849.5390m  
  720.00000p    678.8349u    849.5242m  
  730.00000p    669.1669u    849.5094m  
  740.00000p    659.4989u    849.4946m  
  750.00000p    649.8309u    849.4797m  
  760.00000p    640.1628u    849.4649m  
  770.00000p    630.4948u    849.4501m  
  780.00000p    620.8268u    849.4352m  
  790.00000p    611.1588u    849.4204m  
  800.00000p    601.4908u    849.4056m  
  810.00000p    591.8227u    849.3908m  
  820.00000p    582.1547u    849.3759m  
  830.00000p    572.4867u    849.3611m  
  840.00000p    562.8187u    849.3463m  
  850.00000p    553.1507u    849.3315m  
  860.00000p    543.4826u    849.3166m  
  870.00000p    533.8146u    849.3018m  
  880.00000p    524.1466u    849.2870m  
  890.00000p    514.4786u    849.2721m  
  900.00000p    519.7744u    849.2803m  
  910.00000p    532.0793u    849.2991m  
  920.00000p    544.3842u    849.3180m  
  930.00000p    556.6891u    849.3369m  
  940.00000p    568.9940u    849.3557m  
  950.00000p    581.2989u    849.3746m  
  960.00000p    593.6038u    849.3935m  
  970.00000p    605.9087u    849.4123m  
  980.00000p    618.2136u    849.4312m  
  990.00000p    630.5185u    849.4501m  
    1.00000n    642.8234u    849.4689m  
    1.01000n    655.1283u    849.4878m  
    1.02000n    667.4332u    849.5067m  
    1.03000n    679.7380u    849.5255m  
    1.04000n    692.0429u    849.5444m  
    1.05000n    704.3478u    849.5633m  
    1.06000n    607.3975u    849.4146m  
    1.07000n    607.9996u    849.4156m  
    1.08000n    607.9865u    849.4155m  
    1.09000n    607.9857u    849.4155m  
    1.10000n    607.9836u    849.4155m  
    1.11000n    607.9836u    849.4155m  
    1.12000n    607.9836u    849.4155m  
    1.13000n    607.9836u    849.4155m  
    1.14000n    607.9836u    849.4155m  
    1.15000n    607.9836u    849.4155m  
    1.16000n    607.9836u    849.4155m  
    1.17000n    607.9836u    849.4155m  
    1.18000n    607.9836u    849.4155m  
    1.19000n    607.9836u    849.4155m  
    1.20000n    607.9836u    849.4155m  
    1.21000n    607.9836u    849.4155m  
    1.22000n    607.9836u    849.4155m  
    1.23000n    607.9836u    849.4155m  
    1.24000n    607.9836u    849.4155m  
    1.25000n    607.9836u    849.4155m  
    1.26000n    607.9836u    849.4155m  
    1.27000n    607.9836u    849.4155m  
    1.28000n    607.9836u    849.4155m  
    1.29000n    607.9836u    849.4155m  
    1.30000n    607.9836u    849.4155m  
    1.31000n    607.9836u    849.4155m  
    1.32000n    607.9836u    849.4155m  
    1.33000n    607.9836u    849.4155m  
    1.34000n    607.9836u    849.4155m  
    1.35000n    607.9836u    849.4155m  
    1.36000n    607.9836u    849.4155m  
    1.37000n    607.9836u    849.4155m  
    1.38000n    607.9836u    849.4155m  
    1.39000n    607.9836u    849.4155m  
    1.40000n    607.9836u    849.4155m  
    1.41000n    607.9836u    849.4155m  
    1.42000n    607.9836u    849.4155m  
    1.43000n    607.9836u    849.4155m  
    1.44000n    607.9836u    849.4155m  
    1.45000n    607.9836u    849.4155m  
    1.46000n    607.9836u    849.4155m  
    1.47000n    607.9836u    849.4155m  
    1.48000n    607.9836u    849.4155m  
    1.49000n    607.9836u    849.4155m  
    1.50000n    607.9836u    849.4155m  
    1.51000n    607.9836u    849.4155m  
    1.52000n    607.9836u    849.4155m  
    1.53000n    607.9836u    849.4155m  
    1.54000n    607.9836u    849.4155m  
    1.55000n    607.9836u    849.4155m  
    1.56000n    607.9836u    849.4155m  
    1.57000n    607.9836u    849.4155m  
    1.58000n    607.9836u    849.4155m  
    1.59000n    607.9836u    849.4155m  
    1.60000n    607.9836u    849.4155m  
    1.61000n    607.9836u    849.4155m  
    1.62000n    607.9836u    849.4155m  
    1.63000n    607.9836u    849.4155m  
    1.64000n    607.9836u    849.4155m  
    1.65000n    607.9836u    849.4155m  
    1.66000n    607.9836u    849.4155m  
    1.67000n    607.9836u    849.4155m  
    1.68000n    607.9836u    849.4155m  
    1.69000n    607.9836u    849.4155m  
    1.70000n    607.9836u    849.4155m  
    1.71000n    607.9836u    849.4155m  
    1.72000n    607.9836u    849.4155m  
    1.73000n    607.9836u    849.4155m  
    1.74000n    607.9836u    849.4155m  
    1.75000n    607.9836u    849.4155m  
    1.76000n    607.9836u    849.4155m  
    1.77000n    607.9836u    849.4155m  
    1.78000n    607.9836u    849.4155m  
    1.79000n    607.9836u    849.4155m  
    1.80000n    607.9836u    849.4155m  
    1.81000n    607.9836u    849.4155m  
    1.82000n    607.9836u    849.4155m  
    1.83000n    607.9836u    849.4155m  
    1.84000n    607.9836u    849.4155m  
    1.85000n    607.9836u    849.4155m  
    1.86000n    607.9836u    849.4155m  
    1.87000n    607.9836u    849.4155m  
    1.88000n    607.9836u    849.4155m  
    1.89000n    607.9836u    849.4155m  
    1.90000n    607.9836u    849.4155m  
    1.91000n    607.9836u    849.4155m  
    1.92000n    607.9836u    849.4155m  
    1.93000n    607.9836u    849.4155m  
    1.94000n    607.9836u    849.4155m  
    1.95000n    607.9836u    849.4155m  
    1.96000n    607.9836u    849.4155m  
    1.97000n    607.9836u    849.4155m  
    1.98000n    607.9836u    849.4155m  
    1.99000n    607.9836u    849.4155m  
    2.00000n    607.9836u    849.4155m  
    2.01000n    607.9836u    849.4155m  
    2.02000n    607.9836u    849.4155m  
    2.03000n    607.9836u    849.4155m  
    2.04000n    607.9836u    849.4155m  
    2.05000n    607.9836u    849.4155m  
    2.06000n   -382.1930u    849.3826m  
    2.07000n      5.6055m    849.8886m  
    2.08000n    199.5544m    840.8640m  
    2.09000n      2.7868      54.2651m  
    2.10000n      1.8510     -58.2836m  
    2.11000n    850.0782m    417.5276u  
    2.12000n    849.4146m    606.0132u  
    2.13000n    849.4162m    609.0474u  
    2.14000n    849.4163m    611.6117u  
    2.15000n    849.4158m    609.5852u  
    2.16000n    849.4153m    607.5587u  
    2.17000n    849.4148m    605.5322u  
    2.18000n    849.4143m    603.6971u  
    2.19000n    849.4145m    604.3347u  
    2.20000n    849.4147m    604.9723u  
    2.21000n    849.4149m    605.6099u  
    2.22000n    849.4151m    606.2475u  
    2.23000n    849.4152m    606.8851u  
    2.24000n    849.4154m    607.5227u  
    2.25000n    849.4156m    608.1603u  
    2.26000n    849.4158m    608.7979u  
    2.27000n    849.4160m    609.4356u  
    2.28000n    849.4161m    610.0732u  
    2.29000n    849.4163m    610.7108u  
    2.30000n    849.4165m    611.3484u  
    2.31000n    849.4167m    611.9860u  
    2.32000n    849.4169m    612.5864u  
    2.33000n    849.4167m    612.1380u  
    2.34000n    849.4166m    611.6895u  
    2.35000n    849.4165m    611.2410u  
    2.36000n    849.4163m    610.7926u  
    2.37000n    849.4162m    610.3441u  
    2.38000n    849.4161m    609.8956u  
    2.39000n    849.4159m    609.4472u  
    2.40000n    849.4158m    608.9987u  
    2.41000n    849.4157m    608.5502u  
    2.42000n    849.4155m    608.1018u  
    2.43000n    849.4154m    607.6533u  
    2.44000n    849.4153m    607.2048u  
    2.45000n    849.4151m    606.7564u  
    2.46000n    849.4150m    606.3079u  
    2.47000n    849.4149m    605.8594u  
    2.48000n    849.4147m    605.4110u  
    2.49000n    849.4146m    604.9625u  
    2.50000n    849.4145m    604.5140u  
    2.51000n    849.4143m    604.0656u  
    2.52000n    849.4142m    603.6478u  
    2.53000n    849.4143m    604.0976u  
    2.54000n    849.4145m    604.5474u  
    2.55000n    849.4146m    604.9972u  
    2.56000n    849.4148m    605.4470u  
    2.57000n    849.4149m    605.8968u  
    2.58000n    849.4150m    606.3466u  
    2.59000n    849.4152m    606.7964u  
    2.60000n    849.4153m    607.2462u  
    2.61000n    849.4154m    607.6960u  
    2.62000n    849.4156m    608.1458u  
    2.63000n    849.4157m    608.5956u  
    2.64000n    849.4159m    609.0454u  
    2.65000n    849.4160m    609.4952u  
    2.66000n    849.4161m    609.9450u  
    2.67000n    849.4163m    610.3947u  
    2.68000n    849.4164m    610.8445u  
    2.69000n    849.4165m    611.2943u  
    2.70000n    849.4167m    611.7441u  
    2.71000n    849.4168m    612.1939u  
    2.72000n    849.4169m    612.6129u  
    2.73000n    849.4168m    612.1619u  
    2.74000n    849.4167m    611.7110u  
    2.75000n    849.4165m    611.2600u  
    2.76000n    849.4164m    610.8091u  
    2.77000n    849.4162m    610.3581u  
    2.78000n    849.4161m    609.9072u  
    2.79000n    849.4160m    609.4562u  
    2.80000n    849.4158m    609.0053u  
    2.81000n    849.4157m    608.5543u  
    2.82000n    849.4155m    608.1034u  
    2.83000n    849.4154m    607.6524u  
    2.84000n    849.4152m    607.2015u  
    2.85000n    849.4151m    606.7505u  
    2.86000n    849.4150m    606.2996u  
    2.87000n    849.4148m    605.8486u  
    2.88000n    849.4147m    605.3977u  
    2.89000n    849.4145m    604.9467u  
    2.90000n    849.4144m    604.4958u  
    2.91000n    849.4142m    604.0448u  
    2.92000n    849.4141m    603.6331u  
    2.93000n    849.4143m    604.3273u  
    2.94000n    849.4146m    605.0216u  
    2.95000n    849.4148m    605.7158u  
    2.96000n    849.4150m    606.4101u  
    2.97000n    849.4152m    607.1043u  
    2.98000n    849.4155m    607.7986u  
    2.99000n    849.4157m    608.4928u  
    3.00000n    849.4159m    609.1871u  
    3.01000n    849.4162m    609.8813u  
    3.02000n    849.4164m    610.5756u  
    3.03000n    849.4166m    611.2698u  
    3.04000n    849.4168m    611.9641u  
    3.05000n    849.4171m    612.6583u  
    3.06000n    849.4156m    608.2092u  
    3.07000n    849.4155m    608.0972u  
    3.08000n    849.4155m    608.0900u  
    3.09000n    849.4156m    608.1237u  
    3.10000n    849.4156m    608.1272u  
    3.11000n    849.4156m    608.1248u  
    3.12000n    849.4156m    608.1247u  
    3.13000n    849.4156m    608.1247u  
    3.14000n    849.4156m    608.1248u  
    3.15000n    849.4156m    608.1247u  
    3.16000n    849.4156m    608.1247u  
    3.17000n    849.4156m    608.1247u  
    3.18000n    849.4156m    608.1247u  
    3.19000n    849.4156m    608.1247u  
    3.20000n    849.4156m    608.1247u  
    3.21000n    849.4156m    608.1247u  
    3.22000n    849.4156m    608.1247u  
    3.23000n    849.4156m    608.1247u  
    3.24000n    849.4156m    608.1247u  
    3.25000n    849.4156m    608.1247u  
    3.26000n    849.4156m    608.1247u  
    3.27000n    849.4156m    608.1247u  
    3.28000n    849.4156m    608.1247u  
    3.29000n    849.4156m    608.1248u  
    3.30000n    849.4156m    608.1248u  
    3.31000n    849.4156m    608.1248u  
    3.32000n    849.4156m    608.1248u  
    3.33000n    849.4156m    608.1248u  
    3.34000n    849.4156m    608.1248u  
    3.35000n    849.4156m    608.1248u  
    3.36000n    849.4156m    608.1247u  
    3.37000n    849.4156m    608.1247u  
    3.38000n    849.4156m    608.1247u  
    3.39000n    849.4156m    608.1247u  
    3.40000n    849.4156m    608.1247u  
    3.41000n    849.4156m    608.1247u  
    3.42000n    849.4156m    608.1247u  
    3.43000n    849.4156m    608.1247u  
    3.44000n    849.4156m    608.1247u  
    3.45000n    849.4156m    608.1247u  
    3.46000n    849.4156m    608.1247u  
    3.47000n    849.4156m    608.1247u  
    3.48000n    849.4156m    608.1247u  
    3.49000n    849.4156m    608.1247u  
    3.50000n    849.4156m    608.1247u  
    3.51000n    849.4156m    608.1247u  
    3.52000n    849.4156m    608.1247u  
    3.53000n    849.4156m    608.1247u  
    3.54000n    849.4156m    608.1247u  
    3.55000n    849.4156m    608.1247u  
    3.56000n    849.4156m    608.1247u  
    3.57000n    849.4156m    608.1247u  
    3.58000n    849.4156m    608.1247u  
    3.59000n    849.4156m    608.1247u  
    3.60000n    849.4156m    608.1247u  
    3.61000n    849.4156m    608.1247u  
    3.62000n    849.4156m    608.1247u  
    3.63000n    849.4156m    608.1247u  
    3.64000n    849.4156m    608.1247u  
    3.65000n    849.4156m    608.1247u  
    3.66000n    849.4156m    608.1247u  
    3.67000n    849.4156m    608.1247u  
    3.68000n    849.4156m    608.1248u  
    3.69000n    849.4156m    608.1248u  
    3.70000n    849.4156m    608.1248u  
    3.71000n    849.4156m    608.1248u  
    3.72000n    849.4156m    608.1248u  
    3.73000n    849.4156m    608.1248u  
    3.74000n    849.4156m    608.1248u  
    3.75000n    849.4156m    608.1248u  
    3.76000n    849.4156m    608.1247u  
    3.77000n    849.4156m    608.1247u  
    3.78000n    849.4156m    608.1247u  
    3.79000n    849.4156m    608.1247u  
    3.80000n    849.4156m    608.1247u  
    3.81000n    849.4156m    608.1247u  
    3.82000n    849.4156m    608.1247u  
    3.83000n    849.4156m    608.1247u  
    3.84000n    849.4156m    608.1247u  
    3.85000n    849.4156m    608.1247u  
    3.86000n    849.4156m    608.1247u  
    3.87000n    849.4156m    608.1247u  
    3.88000n    849.4156m    608.1247u  
    3.89000n    849.4156m    608.1247u  
    3.90000n    849.4156m    608.1247u  
    3.91000n    849.4156m    608.1247u  
    3.92000n    849.4156m    608.1247u  
    3.93000n    849.4156m    608.1247u  
    3.94000n    849.4156m    608.1247u  
    3.95000n    849.4156m    608.1247u  
    3.96000n    849.4156m    608.1247u  
    3.97000n    849.4156m    608.1247u  
    3.98000n    849.4156m    608.1247u  
    3.99000n    849.4156m    608.1248u  
    4.00000n    849.4156m    608.1248u  
y

          ***** job concluded
1****** HSPICE -- F-2011.09-SP2 64-BIT (Feb 27 2012) linux ******               
 ******  
 $this uut was automatically generated by:

  ******  job statistics summary tnom=  25.000 temp=  25.000 *****
  
  
 ******  Machine Information  ******
 CPU:
 model name	: Intel(R) Xeon(R) CPU E5-2650 v4 @ 2.20GHz
 cpu MHz	: 2121.195
  
 OS:
 Linux version 3.10.0-693.17.1.el7.x86_64 (mockbuild@x86-041.build.eng.bos.redha
 t.com) (gcc version 4.8.5 20150623 (Red Hat 4.8.5-16) (GCC) ) #1 SMP Sun Jan 14
  10:36:03 EST 2018


  ******  HSPICE Threads Information  ******

  Command Line Threads Count :     1
  Available CPU Count        :    24
  Actual Threads Count       :     1


  ******  Circuit Statistics  ******
  # nodes       =      46 # elements   =      19
  # resistors   =       0 # capacitors =       0 # inductors   =       0
  # mutual_inds =       0 # vccs       =       0 # vcvs        =       0
  # cccs        =       0 # ccvs       =       0 # volt_srcs   =       3
  # curr_srcs   =       0 # diodes     =       0 # bjts        =       0
  # jfets       =       0 # mosfets    =      16 # U elements  =       0
  # T elements  =       0 # W elements =       0 # B elements  =       0
  # S elements  =       0 # P elements =       0 # va device   =       0
  # vector_srcs =       0


  ******  Runtime Statistics (seconds)  ******

  analysis           time    # points   tot. iter  conv.iter
  op point           0.03           1         221
  transient          0.13         401        1441         170 rev=        12
  readin             0.01
  errchk             0.00
  setup              0.00
  output             0.00


           peak memory used        135.46 megabytes
           total cpu time            0.17 seconds
           total elapsed time        0.43 seconds
           job started at     18:26:58 09/12/2020
           job ended   at     18:26:58 09/12/2020


 lic: Release hspice token(s) 
