 ****** HSPICE -- F-2011.09-SP2 64-BIT (Feb 27 2012) linux ******               
  Copyright (C) 2011 Synopsys, Inc. All Rights Reserved.                        
  Unpublished-rights reserved under US copyright laws.
  This program is protected by law and is subject to the
  terms and conditions of the license agreement from Synopsys.
  Use of this program is your acceptance to be bound by the
  license agreement. HSPICE is the trademark of Synopsys, Inc.
  Input File: ptm16hp.sp                                                        
  Command line options: ptm16hp.sp
 lic:  
 lic: FLEXlm: v10.8 
 lic: USER:   iliabautista         HOSTNAME: itn2.rc.usf.edu 
 lic: HOSTID:                      PID:      17596 
 lic: Using FLEXlm license file: 
 lic: 27000@license0.rc.usf.edu 
 lic: Checkout 1 hspice 
 lic: License/Maintenance for hspice will expire on 18-jul-2021/2019.06 
 lic: 1(in_use)/50(total) FLOATING license(s) on SERVER license0.rc.usf.edu 
 lic:   
  **warning** (../modelfiles/hp/16nfet.pm:4) Model nfet device geometries will not be checked against the limits set by lmin, lmax, nfinmin and nfinmax. To enable this check, add a period(.) to the model name(i.e. enable model selector).
1****** HSPICE -- F-2011.09-SP2 64-BIT (Feb 27 2012) linux ******               
 ******  
 $this uut was automatically generated by:

  ******  circuit name directory
 circuit number to circuit name directory
   number circuitname                     definition         multiplier
        0 main circuit
        1 xinput_0.                       inverter           1.00 
        2 xinput_1.                       inverter           1.00 
        3 xinput_2.                       inverter           1.00 
        4 xinverter00.                    inverter           1.00 
        5 xinverter10.                    inverter           1.00 
        6 xinverter20.                    inverter           1.00 
        7 xinverter01.                    inverter           1.00 
        8 xinverter11.                    inverter           1.00 
        9 xinverter21.                    inverter           1.00 
       10 xinverter02.                    inverter           1.00 
       11 xinverter12.                    inverter           1.00 
       12 xinverter22.                    inverter           1.00 
       13 xoutput_00.                     inverter           1.00 
       14 xoutput_10.                     inverter           1.00 
       15 xoutput_20.                     inverter           1.00 
       16 xinput_0.xpfet.                 pfet               1.00 
       17 xinput_0.xnfet.                 nfet               1.00 
       18 xinput_1.xpfet.                 pfet               1.00 
       19 xinput_1.xnfet.                 nfet               1.00 
       20 xinput_2.xpfet.                 pfet               1.00 
       21 xinput_2.xnfet.                 nfet               1.00 
       22 xinverter00.xpfet.              pfet               1.00 
       23 xinverter00.xnfet.              nfet               1.00 
       24 xinverter10.xpfet.              pfet               1.00 
       25 xinverter10.xnfet.              nfet               1.00 
       26 xinverter20.xpfet.              pfet               1.00 
       27 xinverter20.xnfet.              nfet               1.00 
       28 xinverter01.xpfet.              pfet               1.00 
       29 xinverter01.xnfet.              nfet               1.00 
       30 xinverter11.xpfet.              pfet               1.00 
       31 xinverter11.xnfet.              nfet               1.00 
       32 xinverter21.xpfet.              pfet               1.00 
       33 xinverter21.xnfet.              nfet               1.00 
       34 xinverter02.xpfet.              pfet               1.00 
       35 xinverter02.xnfet.              nfet               1.00 
       36 xinverter12.xpfet.              pfet               1.00 
       37 xinverter12.xnfet.              nfet               1.00 
       38 xinverter22.xpfet.              pfet               1.00 
       39 xinverter22.xnfet.              nfet               1.00 
       40 xoutput_00.xpfet.               pfet               1.00 
       41 xoutput_00.xnfet.               nfet               1.00 
       42 xoutput_10.xpfet.               pfet               1.00 
       43 xoutput_10.xnfet.               nfet               1.00 
       44 xoutput_20.xpfet.               pfet               1.00 
       45 xoutput_20.xnfet.               nfet               1.00 
1****** HSPICE -- F-2011.09-SP2 64-BIT (Feb 27 2012) linux ******               
 ******  
 $this uut was automatically generated by:

  ******  mos   model parameters tnom=  25.000 temp=  25.000 *****
 Model Name: pfet 
 BSIM-MG BULK Model(Level72)
   VERSION = 105.03  
   DEVTYPE = -1 
   BULKMOD = 1  
   COREMOD = 0 
   GEOMOD = 1 
   RDSMOD = 1 
   IGCMOD = 1 
   IGBMOD = 1 
   GIDLMOD = 0 
   IIMOD = 0 
   NQSMOD = 0 
   SHMOD = 0 
   RGATEMOD = 0 
   RGEOMOD = 1 
   CGEOMOD = 2 
   CAPMOD = 0 
   LINT =  1e-09 m
   LL =      0 m^(LLN+1)
   LLN =      1 
   DLC =      0 m
   DLBIN =      0 
   LLC =      0 m^(LLN+1)
   EOT =  8e-10 m
   TOXP = 1.35e-09 m
   EOTBOX = 1.4e-07 m
   HFIN = 2.6e-08 m
   FECH =      1 
   DELTAW =      0 m
   FECHCV =      1 
   DELTAWCV =      0 m
   NBODY =  1e+23 m^-3
   NSD =  3e+26 m^-3
   PHIG =  4.764 eV
   EPSROX =    3.9 
   EPSRSUB =   11.9 
   EASUB =   4.05 eV
   NI0SUB = 1.1e+16 m^-3
   BG0SUB =   1.12 eV
   NC0SUB = 2.86e+25 m^-3
   NGATE =      0 m^-3
   CIT = 1.3e-05 F/m^2
   CDSC =  0.018 F/m^2
   CDSCD =  0.007 F/m^2
   CDSCDR =  0.007 
   DVT0 =   0.01 
   DVT1 =   0.69 
   PHIN =   0.05 V
   ETA0 =  0.778 
   ETA0R =  0.778 
   DSUB =    0.9 
   K1RSCE =      0 V^1/2
   LPE0 =  5e-09 m
   DVTSHIFT =      0 
   QMFACTOR =      0 
   QMTCENIV =      0 
   QMTCENCV =      0 
   AQMTCEN =      0 
   BQMTCEN = 1.2e-08 
   ETAQM =   0.54 
   QM0 = 0.001143 
   PQM =   0.66 
   QM0ACC =  0.001 
   PQMACC =   0.66 
   VSAT = 8.8e+04 
   AVSAT =      0 
   BVSAT =  1e-07 
   VSAT1 = 8.8e+04 
   AVSAT1 =      0 
   BVSAT1 =  1e-07 
   DELTAVSAT =      1 
   KSATIV =    0.8 
   MEXP =      3 
   AMEXP =      0 
   BMEXP =      1 
   PTWG =      0 
   APTWG =      0 
   BPTWG =  1e-07 
   AT = -0.00156 
   TMEXP =      0 
   PTWGT =  0.004 
   U0 =   0.03 
   ETAMOB =      2 
   UP =      0 
   LPA =      1 
   UA =    0.3 
   AUA =      0 
   BUA =  1e-07 
   EU =    1.8 
   AEU =      0 
   BEU =  1e-07 
   UD =      0 
   AUD =      0 
   BUD =  5e-08 
   UCS =      0 
   UTE =      0 
   UTL = -0.0015 
   UA1 = 0.001032 
   UD1 =      0 
   UCSTE = -0.00478 
   RDSWMIN =      0 
   RDSW =    100 
   ARDSW =      0 
   BRDSW =  1e-07 
   RSWMIN =      0 
   RSW =      0 
   ARSW =      0 
   BRSW =  1e-07 
   RDWMIN =      0 
   RDW =      0 
   ARDW =      0 
   BRDW =  1e-07 
   PRWG =      0 
   WR =      1 
   PRT =  0.001 
   PDIBL1 =    1.3 
   PDIBL2 = 0.0002 
   DROUT =   1.06 
   PVAG =      1 
   PCLM =    0.2 
   APCLM =      0 
   BPCLM =  1e-07 
   PCLMG =      0 
   VASAT =    0.6 
   PCLMCV =  0.013 
   PCLMGCV =      0 
   VASATCV =    0.2 
   RGEXT =      0 ohm
   RGFIN =  0.001 ohm
   RSHS =      0 ohm
   RSHD =      0 ohm
   HEPI = 9.5e-09 m
   TSILI =  9e-09 m
   RHOC =  2e-12 ohm/m^2
   RHORSD =      1 ohm/m
   RHOEXT =      1 ohm/m
   CRATIO =    0.5 
   DELTAPRSD =      0 m
   SDTERM = 0 
   LSP =  4e-09 m
   LDG =  3e-09 m
   EPSRSP =    3.9 
   TGATE =  9e-09 m
   TMASK =      0 m
   ASILIEND =      0 m^2
   ARSDEND =      0 m^2
   PRSDEND =      0 m
   NSDE =  3e+25 m^-3
   RGEOA =      1 
   RGEOB =      0 m^-1
   RGEOC =      0 m^-1
   RGEOD =      0 m^-1
   RGEOE =      0 m^-1
   CGEOA =      1 
   CGEOB =      0 m^-1
   CGEOC =      0 m^-1
   CGEOD =      0 m^-1
   CGEOE =      1 
   AIGBINV = 0.0111 (Fs^2/g)^0.5m^-1
   BIGBINV =   0.03 (Fs^2/g)^0.5m^-1
   CIGBINV =  0.006 V^-1
   EIGBINV =    1.1 V
   NIGBINV =    1.2 
   AIGBACC = 0.0149 
   BIGBACC = 0.000949 
   CIGBACC =  0.075 
   NIGBACC =      3 
   AIGC = 0.0136 (Fs^2/g)^0.5m^-1
   BIGC = 0.00171 (Fs^2/g)^0.5m^-1V^-1
   CIGC =  0.075 V^-1
   NIGC =      1 
   DLCIGS =      0 m
   AIGS = 0.0136 (Fs^2/g)^0.5m^-1
   BIGS = 0.00171 (Fs^2/g)^0.5m^-1V^-1
   CIGS =  0.075 V^-1
   DLCIGD =      0 m
   AIGD = 0.0136 (Fs^2/g)^0.5m^-1
   BIGD = 0.00171 (Fs^2/g)^0.5m^-1V^-1
   CIGD =  0.075 V^-1
   POXEDGE =      1 
   AGIDL = 5.729e-12 ohm^-1
   BGIDL =  3e+08 V/m
   EGIDL =    0.1 V
   AGISL = 5.729e-12 ohm^-1
   BGISL =  3e+08 V/m
   EGISL =    0.1 V
   ALPHA0 =      0 mV^-1
   ALPHA1 =      0 V^-1
   BETA0 =     30 V^-1
   ALPHAII =      0 
   BETAII0 =      0 V^-1
   BETAII1 =      0 
   BETAII2 =    0.1 V
   ESATII =  1e+07 V/m
   LII =  5e-10 V/m
   SII0 =    0.5 V^-1
   SII1 =    0.1 
   SII2 =      0 V
   SIID =      0 V
   EOTACC =  8e-10 m
   DELVFBACC =      0 V
   CFS = 2.56e-11 F/m
   CFD = 2.65e-11 F/m
   COVS = 2.5e-11 F/m
   COVD = 2.5e-11 F/m
   CGSO =      0 F/m
   CGDO =      0 F/m
   CGSL =      0 F/m
   CGDL =      0 F/m
   CKAPPAS =    0.6 V
   CKAPPAD =    0.6 V
   CGBO =      0 F/m
   CGBL =      0 F/m
   CKAPPAB =    0.6 V
   CSDESW =      0 F/m
   CJS = 0.0005 F/m^2
   CJD = 0.0005 F/m^2
   CJSWS =  5e-10 F/m
   CJSWD =  5e-10 F/m
   CJSWGS =      0 F/m
   CJSWGD =      0 F/m
   PBS =      1 V
   PBD =      1 V
   PBSWS =      1 V
   PBSWD =      1 V
   PBSWGS =      1 V
   PBSWGD =      1 V
   MJS, =    0.5 
   MJD =    0.5 
   MJSWS =   0.33 
   MJSWD =   0.33 
   MJSWGS =   0.33 
   MJSWGD =   0.33 
   SJS =      0 
   SJD =      0 
   SJSWS =      0 
   SJSWD =      0 
   SJSWGS =      0 
   SJSWGD =      0 
   MJS2 =  0.125 
   MJD2 =  0.125 
   MJSWS2 =   0.33 
   MJSWD2 =   0.33 
   MJSWGS2 =   0.33 
   MJSWGD2 =   0.33 
   JSS = 0.0001 A/m^2
   JSD = 0.0001 A/m^2
   JSWS =      0 A/m
   JSWD =      0 A/m
   JSWGS =      0 A/m
   JSWGD =      0 A/m
   NJS =      1 
   NJD =      1 
   IJTHSFWD =    0.1 A
   IJTHDFWD =    0.1 A
   IJTHSREV =    0.1 A
   IJTHDREV =    0.1 A
   BVS =     10 V
   BVD =     10 V
   XJBVS =      1 
   XJBVD =      1 
   JTSS =      0 A/m^2
   JTSD =      0 A/m^2
   JTSSWS =      0 A/m
   JTSSWD =      0 A/m
   JTSSWGS =      0 A/m
   JTSSWGD =      0 A/m
   JTWEFF =      0 m
   NJTS =     20 
   NJTSD =     20 
   NJTSSW =     20 
   NJTSSWD =     20 
   NJTSSWG =     20 
   NJTSSWGD =     20 
   VTSS =     10 V
   VTSD =     10 V
   VTSSWS =     10 V
   VTSSWD =     10 V
   VTSSWGS =     10 V
   VTSSWGD =     10 V
   LINTIGEN =      0 m
   NTGEN =      1 
   AIGEN =      0 m^-3V^-1
   BIGEN =      0 m^-3V^-3
   XRCRG1 =     12 
   XRCRG2 =      1 
   NSEG = 5 
   EF =      1 
   EM = 4.1e+07 V/m
   NOIA = 6.25e+39 eV^-1s^1-EFm^-3
   NOIB = 3.125e+24 eV^-1s^1-EFm^-1
   NOIC = 8.75e+07 eV^-1s^1-EFm
   NTNOI =      1 
   TNOM =  300.1 K
   TBGASUB = 0.000702 eV/K
   TBGBSUB =   1108 K
   KT1 =      0 V
   KT1L =      0 Vm
   IIT =   -0.5 
   TII =      0 
   TGIDL = -0.0003 K^-1
   IGT =    2.5 
   TCJ =      0 K^-1
   TCJSW =      0 K^-1
   TCJSWG =      0 K^-1
   TPB =      0 K^-1
   TPBSW =      0 K^-1
   TPBSWG =      0 K^-1
   XTIS =      3 
   XTID =      3 
   XTSS =   0.02 
   XTSD =   0.02 
   XTSSWS =   0.02 
   XTSSWD =   0.02 
   XTSSWGS =   0.02 
   XTSSWGD =   0.02 
   TNJTS =      0 
   TNJTSD =      0 
   TNJTSSW =      0 
   TNJTSSWD =      0 
   TNJTSSWG =      0 
   TNJTSSWGD =      0 
   RTH0 =   0.01 ohm
   CTH0 =  1e-05 F
   WTH0 =      0 m
   LNBODY =      0 
   NNBODY =      0 
   PNBODY =      0 
   LPHIG =      0 
   NPHIG =      0 
   PPHIG =      0 
   LNGATE =      0 
   NNGATE =      0 
   PNGATE =      0 
   LCIT =      0 
   NCIT =      0 
   PCIT =      0 
   LCDSC =      0 
   NCDSC =      0 
   PCDSC =      0 
   LCDSCD =      0 
   NCDSCD =      0 
   PCDSCD =      0 
   LCDSCDR =      0 
   NCDSCDR =      0 
   PCDSCDR =      0 
   LDVT0 =      0 
   NDVT0 =      0 
   PDVT0 =      0 
   LDVT1 =      0 
   NDVT1 =      0 
   PDVT1 =      0 
   LPHIN =      0 
   NPHIN =      0 
   PPHIN =      0 
   LETA0 =      0 
   NETA0 =      0 
   PETA0 =      0 
   LETA0R =      0 
   NETA0R =      0 
   PETA0R =      0 
   LDSUB =      0 
   NDSUB =      0 
   PDSUB =      0 
   LK1RSCE =      0 
   NK1RSCE =      0 
   PK1RSCE =      0 
   LLPE0 =      0 
   NLPE0 =      0 
   PLPE0 =      0 
   LQMFACTOR =      0 
   NQMFACTOR =      0 
   PQMFACTOR =      0 
   LQMTCENIV =      0 
   NQMTCENIV =      0 
   PQMTCENIV =      0 
   LQMTCENCV =      0 
   NQMTCENCV =      0 
   PQMTCENCV =      0 
   LVSAT =      0 
   NVSAT =      0 
   PVSAT =      0 
   LKSATIV =      0 
   NKSATIV =      0 
   PKSATIV =      0 
   LMEXP =      0 
   NMEXP =      0 
   PMEXP =      0 
   LPTWG =      0 
   NPTWG =      0 
   PPTWG =      0 
   LTHETASAT =      0 
   NTHETASAT =      0 
   PTHETASAT =      0 
   LU0 =      0 
   NU0 =      0 
   PU0 =      0 
   LUP =      0 
   NUP =      0 
   PUP =      0 
   LUA =      0 
   NUA =      0 
   PUA =      0 
   LEU =      0 
   NEU =      0 
   PEU =      0 
   LUD =      0 
   NUD =      0 
   PUD =      0 
   LUCS =      0 
   NUCS =      0 
   PUCS =      0 
   LPCLM =      0 
   NPCLM =      0 
   PPCLM =      0 
   LPCLMCV =      0 
   NPCLMCV =      0 
   PPCLMCV =      0 
   LRDSW =      0 
   NRDSW =      0 
   PRDSW =      0 
   LRSW =      0 
   NRSW =      0 
   PRSW =      0 
   LRDW =      0 
   NRDW =      0 
   PRDW =      0 
   LPRWG =      0 
   NPRWG =      0 
   PPRWG =      0 
   LWR =      0 
   NWR =      0 
   PWR =      0 
   LPDIBL1 =      0 
   NPDIBL1 =      0 
   PPDIBL1 =      0 
   LPDIBL2 =      0 
   NPDIBL2 =      0 
   PPDIBL2 =      0 
   LDROUT =      0 
   NDROUT =      0 
   PDROUT =      0 
   LPVAG =      0 
   NPVAG =      0 
   PPVAG =      0 
   LAIGBINV =      0 
   NAIGBINV =      0 
   PAIGBINV =      0 
   LBIGBINV =      0 
   NBIGBINV =      0 
   PBIGBINV =      0 
   LCIGBINV =      0 
   NCIGBINV =      0 
   PCIGBINV =      0 
   LEIGBINV =      0 
   NEIGBINV =      0 
   PEIGBINV =      0 
   LNIGBINV =      0 
   NNIGBINV =      0 
   PNIGBINV =      0 
   LAIGC =      0 
   NAIGC =      0 
   PAIGC =      0 
   LBIGC =      0 
   NBIGC =      0 
   PBIGC =      0 
   LCIGC =      0 
   NCIGC =      0 
   PCIGC =      0 
   LNIGC =      0 
   NNIGC =      0 
   PNIGC =      0 
   LAIGS =      0 
   NAIGS =      0 
   PAIGS =      0 
   LBIGS =      0 
   NBIGS =      0 
   PBIGS =      0 
   LCIGS =      0 
   NCIGS =      0 
   PCIGS =      0 
   LAIGD =      0 
   NAIGD =      0 
   PAIGD =      0 
   LBIGD =      0 
   NBIGD =      0 
   PBIGD =      0 
   LCIGD =      0 
   NCIGD =      0 
   PCIGD =      0 
   LPOXEDGE =      0 
   NPOXEDGE =      0 
   PPOXEDGE =      0 
   LAGIDL =      0 
   NAGIDL =      0 
   PAGIDL =      0 
   LBGIDL =      0 
   NBGIDL =      0 
   PBGIDL =      0 
   LEGIDL =      0 
   NEGIDL =      0 
   PEGIDL =      0 
   LAGISL =      0 
   NAGISL =      0 
   PAGISL =      0 
   LBGISL =      0 
   NBGISL =      0 
   PBGISL =      0 
   LEGISL =      0 
   NEGISL =      0 
   PEGISL =      0 
   LALPHA0 =      0 
   NALPHA0 =      0 
   PALPHA0 =      0 
   LALPHA1 =      0 
   NALPHA1 =      0 
   PALPHA1 =      0 
   LBETA0 =      0 
   NBETA0 =      0 
   PBETA0 =      0 
   LALPHAII =      0 
   NALPHAII =      0 
   PALPHAII =      0 
   LBETAII0 =      0 
   NBETAII0 =      0 
   PBETAII0 =      0 
   LBETAII1 =      0 
   NBETAII1 =      0 
   PBETAII1 =      0 
   LBETAII2 =      0 
   NBETAII2 =      0 
   PBETAII2 =      0 
   LESATII =      0 
   NESATII =      0 
   PESATII =      0 
   LLII =      0 
   NLII =      0 
   PLII =      0 
   LSII0 =      0 
   NSII0 =      0 
   PSII0 =      0 
   LSII1 =      0 
   NSII1 =      0 
   PSII1 =      0 
   LSII2 =      0 
   NSII2 =      0 
   PSII2 =      0 
   LSIID =      0 
   NSIID =      0 
   PSIID =      0 
   LCFS =      0 
   NCFS =      0 
   PCFS =      0 
   LCFD =      0 
   NCFD =      0 
   PCFD =      0 
   LCOVS =      0 
   NCOVS =      0 
   PCOVS =      0 
   LCOVD =      0 
   NCOVD =      0 
   PCOVD =      0 
   LCGSL =      0 
   NCGSL =      0 
   PCGSL =      0 
   LCGDL =      0 
   NCGDL =      0 
   PCGDL =      0 
   LCKAPPAS =      0 
   NCKAPPAS =      0 
   PCKAPPAS =      0 
   LCKAPPAD =      0 
   NCKAPPAD =      0 
   PCKAPPAD =      0 
   LCGBL =      0 
   NCGBL =      0 
   PCGBL =      0 
   LCKAPPAB =      0 
   NCKAPPAB =      0 
   PCKAPPAB =      0 
   LNTGEN =      0 
   NNTGEN =      0 
   PNTGEN =      0 
   LAIGEN =      0 
   NAIGEN =      0 
   PAIGEN =      0 
   LBIGEN =      0 
   NBIGEN =      0 
   PBIGEN =      0 
   LXRCRG1 =      0 
   NXRCRG1 =      0 
   PXRCRG1 =      0 
   LXRCRG2 =      0 
   NXRCRG2 =      0 
   PXRCRG2 =      0 
   LINTNOI =      0 
   NINTNOI =      0 
   PINTNOI =      0 
   LUTE =      0 
   NUTE =      0 
   PUTE =      0 
   LUTL =      0 
   NUTL =      0 
   PUTL =      0 
   LUA1 =      0 
   NUA1 =      0 
   PUA1 =      0 
   LUD1 =      0 
   NUD1 =      0 
   PUD1 =      0 
   LUCSTE =      0 
   NUCSTE =      0 
   PUCSTE =      0 
   LPTWGT =      0 
   NPTWGT =      0 
   PPTWGT =      0 
   LAT =      0 
   NAT =      0 
   PAT =      0 
   LSTTHETASAT =      0 
   NSTTHETASAT =      0 
   PSTTHETASAT =      0 
   LPRT =      0 
   NPRT =      0 
   PPRT =      0 
   LIIT =      0 
   NIIT =      0 
   PIIT =      0 
   LTII =      0 
   NTII =      0 
   PTII =      0 
   LTGIDL =      0 
   NTGIDL =      0 
   PTGIDL =      0 
   LIGT =      0 
   NIGT =      0 
   PIGT =      0 
   L =  2e-08 m
   D =  4e-08 m
   TFIN = 1.2e-08 m
   FPITCH = 4.2e-08 m
   NF = 1 
   NFIN = 1 
   NGCON = 1 
   ASEO =      0 m^2
   ADEO =      0 m^2
   PSEO =      0 m
   PDEO =      0 m
   ASEJ =      0 m^2
   ADEJ =      0 m^2
   PSEJ =      0 m
   PDEJ =      0 m
   CGSP =      0 F
   CGDP =      0 F
   CDSP =      0 F
   NRS =      0 
   NRD =      0 
   LRSD =  2e-08 m
   XL =      0 m
   DELVTRAND =      0 
   U0MULT =      1 
   IDS0MULT =      1 
   Lmin =  1e-08 m
   Lmax =  3e-08 m
   NFINmin = 0 
   NFINmax = 1 
   LVSAT1 =      0 
   NVSAT1 =      0 
   PVSAT1 =      0 
   LETAMOB =      0 
   NETAMOB =      0 
   PETAMOB =      0 
   LPCLMG =      0 
   NPCLMG =      0 
   PPCLMG =      0 
   LVASAT =      0 
   NVASAT =      0 
   PVASAT =      0 
   LAIGBACC =      0 
   NAIGBACC =      0 
   PAIGBACC =      0 
   LBIGBACC =      0 
   NBIGBACC =      0 
   PBIGBACC =      0 
   LCIGBACC =      0 
   NCIGBACC =      0 
   PCIGBACC =      0 
   LNIGBACC =      0 
   NNIGBACC =      0 
   PNIGBACC =      0 
 Model Name: nfet 
 BSIM-MG BULK Model(Level72)
   VERSION = 105.03  
   DEVTYPE = 1 
   BULKMOD = 1  
   COREMOD = 0 
   GEOMOD = 1 
   RDSMOD = 1 
   IGCMOD = 1 
   IGBMOD = 1 
   GIDLMOD = 0 
   IIMOD = 0 
   NQSMOD = 0 
   SHMOD = 0 
   RGATEMOD = 0 
   RGEOMOD = 1 
   CGEOMOD = 2 
   CAPMOD = 0 
   LINT =  1e-09 m
   LL =      0 m^(LLN+1)
   LLN =      1 
   DLC =      0 m
   DLBIN =      0 
   LLC =      0 m^(LLN+1)
   EOT =  8e-10 m
   TOXP = 1.35e-09 m
   EOTBOX = 1.4e-07 m
   HFIN = 2.6e-08 m
   FECH =      1 
   DELTAW =      0 m
   FECHCV =      1 
   DELTAWCV =      0 m
   NBODY =  1e+23 m^-3
   NSD =  3e+26 m^-3
   PHIG =  4.406 eV
   EPSROX =    3.9 
   EPSRSUB =   11.9 
   EASUB =   4.05 eV
   NI0SUB = 1.1e+16 m^-3
   BG0SUB =   1.12 eV
   NC0SUB = 2.86e+25 m^-3
   NGATE =      0 m^-3
   CIT = 1.3e-05 F/m^2
   CDSC =  0.018 F/m^2
   CDSCD =  0.007 F/m^2
   CDSCDR =  0.007 
   DVT0 =   0.01 
   DVT1 =   0.69 
   PHIN =   0.05 V
   ETA0 = 0.5261 
   ETA0R = 0.5261 
   DSUB =    0.9 
   K1RSCE =      0 V^1/2
   LPE0 =  5e-09 m
   DVTSHIFT =      0 
   QMFACTOR =      0 
   QMTCENIV =      0 
   QMTCENCV =      0 
   AQMTCEN =      0 
   BQMTCEN = 1.2e-08 
   ETAQM =   0.54 
   QM0 = 0.001143 
   PQM =   0.66 
   QM0ACC =  0.001 
   PQMACC =   0.66 
   VSAT =  9e+04 
   AVSAT =      0 
   BVSAT =  1e-07 
   VSAT1 =  9e+04 
   AVSAT1 =      0 
   BVSAT1 =  1e-07 
   DELTAVSAT =      1 
   KSATIV =    0.8 
   MEXP =      3 
   AMEXP =      0 
   BMEXP =      1 
   PTWG =      0 
   APTWG =      0 
   BPTWG =  1e-07 
   AT = -0.00156 
   TMEXP =      0 
   PTWGT =  0.004 
   U0 = 0.0448 
   ETAMOB =      2 
   UP =      0 
   LPA =      1 
   UA =    0.3 
   AUA =      0 
   BUA =  1e-07 
   EU =    1.8 
   AEU =      0 
   BEU =  1e-07 
   UD =      0 
   AUD =      0 
   BUD =  5e-08 
   UCS =      0 
   UTE =      0 
   UTL = -0.0015 
   UA1 = 0.001032 
   UD1 =      0 
   UCSTE = -0.00478 
   RDSWMIN =      0 
   RDSW =    100 
   ARDSW =      0 
   BRDSW =  1e-07 
   RSWMIN =      0 
   RSW =      0 
   ARSW =      0 
   BRSW =  1e-07 
   RDWMIN =      0 
   RDW =      0 
   ARDW =      0 
   BRDW =  1e-07 
   PRWG =      0 
   WR =      1 
   PRT =  0.001 
   PDIBL1 =    1.3 
   PDIBL2 = 0.0002 
   DROUT =   1.06 
   PVAG =      1 
   PCLM =    0.2 
   APCLM =      0 
   BPCLM =  1e-07 
   PCLMG =      0 
   VASAT =    0.6 
   PCLMCV =  0.013 
   PCLMGCV =      0 
   VASATCV =    0.2 
   RGEXT =      0 ohm
   RGFIN =  0.001 ohm
   RSHS =      0 ohm
   RSHD =      0 ohm
   HEPI = 9.5e-09 m
   TSILI =  9e-09 m
   RHOC = 1.5e-12 ohm/m^2
   RHORSD =      1 ohm/m
   RHOEXT =      1 ohm/m
   CRATIO =    0.5 
   DELTAPRSD =      0 m
   SDTERM = 0 
   LSP =  4e-09 m
   LDG =  3e-09 m
   EPSRSP =    3.9 
   TGATE =  9e-09 m
   TMASK =      0 m
   ASILIEND =      0 m^2
   ARSDEND =      0 m^2
   PRSDEND =      0 m
   NSDE =  3e+25 m^-3
   RGEOA =      1 
   RGEOB =      0 m^-1
   RGEOC =      0 m^-1
   RGEOD =      0 m^-1
   RGEOE =      0 m^-1
   CGEOA =      1 
   CGEOB =      0 m^-1
   CGEOC =      0 m^-1
   CGEOD =      0 m^-1
   CGEOE =      1 
   AIGBINV = 0.0111 (Fs^2/g)^0.5m^-1
   BIGBINV =   0.03 (Fs^2/g)^0.5m^-1
   CIGBINV =  0.006 V^-1
   EIGBINV =    1.1 V
   NIGBINV =    1.2 
   AIGBACC = 0.0149 
   BIGBACC = 0.000949 
   CIGBACC =  0.075 
   NIGBACC =      3 
   AIGC = 0.0136 (Fs^2/g)^0.5m^-1
   BIGC = 0.00171 (Fs^2/g)^0.5m^-1V^-1
   CIGC =  0.075 V^-1
   NIGC =      1 
   DLCIGS =      0 m
   AIGS = 0.0136 (Fs^2/g)^0.5m^-1
   BIGS = 0.00171 (Fs^2/g)^0.5m^-1V^-1
   CIGS =  0.075 V^-1
   DLCIGD =      0 m
   AIGD = 0.0136 (Fs^2/g)^0.5m^-1
   BIGD = 0.00171 (Fs^2/g)^0.5m^-1V^-1
   CIGD =  0.075 V^-1
   POXEDGE =      1 
   AGIDL = 5.729e-12 ohm^-1
   BGIDL =  3e+08 V/m
   EGIDL =    0.1 V
   AGISL = 5.729e-12 ohm^-1
   BGISL =  3e+08 V/m
   EGISL =    0.1 V
   ALPHA0 =      0 mV^-1
   ALPHA1 =      0 V^-1
   BETA0 =     30 V^-1
   ALPHAII =      0 
   BETAII0 =      0 V^-1
   BETAII1 =      0 
   BETAII2 =    0.1 V
   ESATII =  1e+07 V/m
   LII =  5e-10 V/m
   SII0 =    0.5 V^-1
   SII1 =    0.1 
   SII2 =      0 V
   SIID =      0 V
   EOTACC =  8e-10 m
   DELVFBACC =      0 V
   CFS = 2.56e-11 F/m
   CFD = 2.65e-11 F/m
   COVS = 2.5e-11 F/m
   COVD = 2.5e-11 F/m
   CGSO =      0 F/m
   CGDO =      0 F/m
   CGSL =      0 F/m
   CGDL =      0 F/m
   CKAPPAS =    0.6 V
   CKAPPAD =    0.6 V
   CGBO =      0 F/m
   CGBL =      0 F/m
   CKAPPAB =    0.6 V
   CSDESW =      0 F/m
   CJS = 0.0005 F/m^2
   CJD = 0.0005 F/m^2
   CJSWS =  5e-10 F/m
   CJSWD =  5e-10 F/m
   CJSWGS =      0 F/m
   CJSWGD =      0 F/m
   PBS =      1 V
   PBD =      1 V
   PBSWS =      1 V
   PBSWD =      1 V
   PBSWGS =      1 V
   PBSWGD =      1 V
   MJS, =    0.5 
   MJD =    0.5 
   MJSWS =   0.33 
   MJSWD =   0.33 
   MJSWGS =   0.33 
   MJSWGD =   0.33 
   SJS =      0 
   SJD =      0 
   SJSWS =      0 
   SJSWD =      0 
   SJSWGS =      0 
   SJSWGD =      0 
   MJS2 =  0.125 
   MJD2 =  0.125 
   MJSWS2 =   0.33 
   MJSWD2 =   0.33 
   MJSWGS2 =   0.33 
   MJSWGD2 =   0.33 
   JSS = 0.0001 A/m^2
   JSD = 0.0001 A/m^2
   JSWS =      0 A/m
   JSWD =      0 A/m
   JSWGS =      0 A/m
   JSWGD =      0 A/m
   NJS =      1 
   NJD =      1 
   IJTHSFWD =    0.1 A
   IJTHDFWD =    0.1 A
   IJTHSREV =    0.1 A
   IJTHDREV =    0.1 A
   BVS =     10 V
   BVD =     10 V
   XJBVS =      1 
   XJBVD =      1 
   JTSS =      0 A/m^2
   JTSD =      0 A/m^2
   JTSSWS =      0 A/m
   JTSSWD =      0 A/m
   JTSSWGS =      0 A/m
   JTSSWGD =      0 A/m
   JTWEFF =      0 m
   NJTS =     20 
   NJTSD =     20 
   NJTSSW =     20 
   NJTSSWD =     20 
   NJTSSWG =     20 
   NJTSSWGD =     20 
   VTSS =     10 V
   VTSD =     10 V
   VTSSWS =     10 V
   VTSSWD =     10 V
   VTSSWGS =     10 V
   VTSSWGD =     10 V
   LINTIGEN =      0 m
   NTGEN =      1 
   AIGEN =      0 m^-3V^-1
   BIGEN =      0 m^-3V^-3
   XRCRG1 =     12 
   XRCRG2 =      1 
   NSEG = 5 
   EF =      1 
   EM = 4.1e+07 V/m
   NOIA = 6.25e+39 eV^-1s^1-EFm^-3
   NOIB = 3.125e+24 eV^-1s^1-EFm^-1
   NOIC = 8.75e+07 eV^-1s^1-EFm
   NTNOI =      1 
   TNOM =  300.1 K
   TBGASUB = 0.000702 eV/K
   TBGBSUB =   1108 K
   KT1 =      0 V
   KT1L =      0 Vm
   IIT =   -0.5 
   TII =      0 
   TGIDL = -0.0003 K^-1
   IGT =    2.5 
   TCJ =      0 K^-1
   TCJSW =      0 K^-1
   TCJSWG =      0 K^-1
   TPB =      0 K^-1
   TPBSW =      0 K^-1
   TPBSWG =      0 K^-1
   XTIS =      3 
   XTID =      3 
   XTSS =   0.02 
   XTSD =   0.02 
   XTSSWS =   0.02 
   XTSSWD =   0.02 
   XTSSWGS =   0.02 
   XTSSWGD =   0.02 
   TNJTS =      0 
   TNJTSD =      0 
   TNJTSSW =      0 
   TNJTSSWD =      0 
   TNJTSSWG =      0 
   TNJTSSWGD =      0 
   RTH0 =   0.01 ohm
   CTH0 =  1e-05 F
   WTH0 =      0 m
   LNBODY =      0 
   NNBODY =      0 
   PNBODY =      0 
   LPHIG =      0 
   NPHIG =      0 
   PPHIG =      0 
   LNGATE =      0 
   NNGATE =      0 
   PNGATE =      0 
   LCIT =      0 
   NCIT =      0 
   PCIT =      0 
   LCDSC =      0 
   NCDSC =      0 
   PCDSC =      0 
   LCDSCD =      0 
   NCDSCD =      0 
   PCDSCD =      0 
   LCDSCDR =      0 
   NCDSCDR =      0 
   PCDSCDR =      0 
   LDVT0 =      0 
   NDVT0 =      0 
   PDVT0 =      0 
   LDVT1 =      0 
   NDVT1 =      0 
   PDVT1 =      0 
   LPHIN =      0 
   NPHIN =      0 
   PPHIN =      0 
   LETA0 =      0 
   NETA0 =      0 
   PETA0 =      0 
   LETA0R =      0 
   NETA0R =      0 
   PETA0R =      0 
   LDSUB =      0 
   NDSUB =      0 
   PDSUB =      0 
   LK1RSCE =      0 
   NK1RSCE =      0 
   PK1RSCE =      0 
   LLPE0 =      0 
   NLPE0 =      0 
   PLPE0 =      0 
   LQMFACTOR =      0 
   NQMFACTOR =      0 
   PQMFACTOR =      0 
   LQMTCENIV =      0 
   NQMTCENIV =      0 
   PQMTCENIV =      0 
   LQMTCENCV =      0 
   NQMTCENCV =      0 
   PQMTCENCV =      0 
   LVSAT =      0 
   NVSAT =      0 
   PVSAT =      0 
   LKSATIV =      0 
   NKSATIV =      0 
   PKSATIV =      0 
   LMEXP =      0 
   NMEXP =      0 
   PMEXP =      0 
   LPTWG =      0 
   NPTWG =      0 
   PPTWG =      0 
   LTHETASAT =      0 
   NTHETASAT =      0 
   PTHETASAT =      0 
   LU0 =      0 
   NU0 =      0 
   PU0 =      0 
   LUP =      0 
   NUP =      0 
   PUP =      0 
   LUA =      0 
   NUA =      0 
   PUA =      0 
   LEU =      0 
   NEU =      0 
   PEU =      0 
   LUD =      0 
   NUD =      0 
   PUD =      0 
   LUCS =      0 
   NUCS =      0 
   PUCS =      0 
   LPCLM =      0 
   NPCLM =      0 
   PPCLM =      0 
   LPCLMCV =      0 
   NPCLMCV =      0 
   PPCLMCV =      0 
   LRDSW =      0 
   NRDSW =      0 
   PRDSW =      0 
   LRSW =      0 
   NRSW =      0 
   PRSW =      0 
   LRDW =      0 
   NRDW =      0 
   PRDW =      0 
   LPRWG =      0 
   NPRWG =      0 
   PPRWG =      0 
   LWR =      0 
   NWR =      0 
   PWR =      0 
   LPDIBL1 =      0 
   NPDIBL1 =      0 
   PPDIBL1 =      0 
   LPDIBL2 =      0 
   NPDIBL2 =      0 
   PPDIBL2 =      0 
   LDROUT =      0 
   NDROUT =      0 
   PDROUT =      0 
   LPVAG =      0 
   NPVAG =      0 
   PPVAG =      0 
   LAIGBINV =      0 
   NAIGBINV =      0 
   PAIGBINV =      0 
   LBIGBINV =      0 
   NBIGBINV =      0 
   PBIGBINV =      0 
   LCIGBINV =      0 
   NCIGBINV =      0 
   PCIGBINV =      0 
   LEIGBINV =      0 
   NEIGBINV =      0 
   PEIGBINV =      0 
   LNIGBINV =      0 
   NNIGBINV =      0 
   PNIGBINV =      0 
   LAIGC =      0 
   NAIGC =      0 
   PAIGC =      0 
   LBIGC =      0 
   NBIGC =      0 
   PBIGC =      0 
   LCIGC =      0 
   NCIGC =      0 
   PCIGC =      0 
   LNIGC =      0 
   NNIGC =      0 
   PNIGC =      0 
   LAIGS =      0 
   NAIGS =      0 
   PAIGS =      0 
   LBIGS =      0 
   NBIGS =      0 
   PBIGS =      0 
   LCIGS =      0 
   NCIGS =      0 
   PCIGS =      0 
   LAIGD =      0 
   NAIGD =      0 
   PAIGD =      0 
   LBIGD =      0 
   NBIGD =      0 
   PBIGD =      0 
   LCIGD =      0 
   NCIGD =      0 
   PCIGD =      0 
   LPOXEDGE =      0 
   NPOXEDGE =      0 
   PPOXEDGE =      0 
   LAGIDL =      0 
   NAGIDL =      0 
   PAGIDL =      0 
   LBGIDL =      0 
   NBGIDL =      0 
   PBGIDL =      0 
   LEGIDL =      0 
   NEGIDL =      0 
   PEGIDL =      0 
   LAGISL =      0 
   NAGISL =      0 
   PAGISL =      0 
   LBGISL =      0 
   NBGISL =      0 
   PBGISL =      0 
   LEGISL =      0 
   NEGISL =      0 
   PEGISL =      0 
   LALPHA0 =      0 
   NALPHA0 =      0 
   PALPHA0 =      0 
   LALPHA1 =      0 
   NALPHA1 =      0 
   PALPHA1 =      0 
   LBETA0 =      0 
   NBETA0 =      0 
   PBETA0 =      0 
   LALPHAII =      0 
   NALPHAII =      0 
   PALPHAII =      0 
   LBETAII0 =      0 
   NBETAII0 =      0 
   PBETAII0 =      0 
   LBETAII1 =      0 
   NBETAII1 =      0 
   PBETAII1 =      0 
   LBETAII2 =      0 
   NBETAII2 =      0 
   PBETAII2 =      0 
   LESATII =      0 
   NESATII =      0 
   PESATII =      0 
   LLII =      0 
   NLII =      0 
   PLII =      0 
   LSII0 =      0 
   NSII0 =      0 
   PSII0 =      0 
   LSII1 =      0 
   NSII1 =      0 
   PSII1 =      0 
   LSII2 =      0 
   NSII2 =      0 
   PSII2 =      0 
   LSIID =      0 
   NSIID =      0 
   PSIID =      0 
   LCFS =      0 
   NCFS =      0 
   PCFS =      0 
   LCFD =      0 
   NCFD =      0 
   PCFD =      0 
   LCOVS =      0 
   NCOVS =      0 
   PCOVS =      0 
   LCOVD =      0 
   NCOVD =      0 
   PCOVD =      0 
   LCGSL =      0 
   NCGSL =      0 
   PCGSL =      0 
   LCGDL =      0 
   NCGDL =      0 
   PCGDL =      0 
   LCKAPPAS =      0 
   NCKAPPAS =      0 
   PCKAPPAS =      0 
   LCKAPPAD =      0 
   NCKAPPAD =      0 
   PCKAPPAD =      0 
   LCGBL =      0 
   NCGBL =      0 
   PCGBL =      0 
   LCKAPPAB =      0 
   NCKAPPAB =      0 
   PCKAPPAB =      0 
   LNTGEN =      0 
   NNTGEN =      0 
   PNTGEN =      0 
   LAIGEN =      0 
   NAIGEN =      0 
   PAIGEN =      0 
   LBIGEN =      0 
   NBIGEN =      0 
   PBIGEN =      0 
   LXRCRG1 =      0 
   NXRCRG1 =      0 
   PXRCRG1 =      0 
   LXRCRG2 =      0 
   NXRCRG2 =      0 
   PXRCRG2 =      0 
   LINTNOI =      0 
   NINTNOI =      0 
   PINTNOI =      0 
   LUTE =      0 
   NUTE =      0 
   PUTE =      0 
   LUTL =      0 
   NUTL =      0 
   PUTL =      0 
   LUA1 =      0 
   NUA1 =      0 
   PUA1 =      0 
   LUD1 =      0 
   NUD1 =      0 
   PUD1 =      0 
   LUCSTE =      0 
   NUCSTE =      0 
   PUCSTE =      0 
   LPTWGT =      0 
   NPTWGT =      0 
   PPTWGT =      0 
   LAT =      0 
   NAT =      0 
   PAT =      0 
   LSTTHETASAT =      0 
   NSTTHETASAT =      0 
   PSTTHETASAT =      0 
   LPRT =      0 
   NPRT =      0 
   PPRT =      0 
   LIIT =      0 
   NIIT =      0 
   PIIT =      0 
   LTII =      0 
   NTII =      0 
   PTII =      0 
   LTGIDL =      0 
   NTGIDL =      0 
   PTGIDL =      0 
   LIGT =      0 
   NIGT =      0 
   PIGT =      0 
   L =  2e-08 m
   D =  4e-08 m
   TFIN = 1.2e-08 m
   FPITCH = 4.2e-08 m
   NF = 1 
   NFIN = 1 
   NGCON = 1 
   ASEO =      0 m^2
   ADEO =      0 m^2
   PSEO =      0 m
   PDEO =      0 m
   ASEJ =      0 m^2
   ADEJ =      0 m^2
   PSEJ =      0 m
   PDEJ =      0 m
   CGSP =      0 F
   CGDP =      0 F
   CDSP =      0 F
   NRS =      0 
   NRD =      0 
   LRSD =  2e-08 m
   XL =      0 m
   DELVTRAND =      0 
   U0MULT =      1 
   IDS0MULT =      1 
   Lmin =  1e-08 m
   Lmax =  3e-08 m
   NFINmin = 0 
   NFINmax = 1 
   LVSAT1 =      0 
   NVSAT1 =      0 
   PVSAT1 =      0 
   LETAMOB =      0 
   NETAMOB =      0 
   PETAMOB =      0 
   LPCLMG =      0 
   NPCLMG =      0 
   PPCLMG =      0 
   LVASAT =      0 
   NVASAT =      0 
   PVASAT =      0 
   LAIGBACC =      0 
   NAIGBACC =      0 
   PAIGBACC =      0 
   LBIGBACC =      0 
   NBIGBACC =      0 
   PBIGBACC =      0 
   LCIGBACC =      0 
   NCIGBACC =      0 
   PCIGBACC =      0 
   LNIGBACC =      0 
   NNIGBACC =      0 
   PNIGBACC =      0 
  **info** (ptm16hp.sp:15) DC voltage reset to initial transient source value              in source        0:vin_0               new dc=  0.8500D+00
  
 **warning**  No DC path to ground from node        0:outin_40         defined in subckt 0               ; Connected by HSPICE with gdcpath


      
 **info** set option symb=1 internally to help for convergence.
 *****************************************************************
 ******  option summary
 ******
 runlvl  = 3         bypass  = 2         
  Opening plot unit= 15
 file=ptm16hp.pa0                                                              

 **info** dc convergence successful
 you can increase the efficiency of the
 operating point calculation by setting dcon= 1
 in the .option statement
1****** HSPICE -- F-2011.09-SP2 64-BIT (Feb 27 2012) linux ******               
 ******  
 $this uut was automatically generated by:

  ******  operating point information tnom=  25.000 temp=  25.000 *****
 ***** operating point status is voltage   simulation time is     0.     
     node    =voltage       node    =voltage       node    =voltage

 + 0:inb_0   = 850.0000m  0:inb_1   = 850.0000m  0:inb_2   = 850.0000m
 + 0:outb_00 = 849.2768m  0:outb_10 = 849.2768m  0:outb_20 = 849.2768m
 + 0:outin_00= 599.0589u  0:outin_01= 599.0589u  0:outin_02= 599.0589u
 + 0:outin_10= 849.4156m  0:outin_11= 849.4156m  0:outin_12= 849.4156m
 + 0:outin_20= 608.1248u  0:outin_21= 608.1248u  0:outin_22= 608.1248u
 + 0:outin_30= 849.4155m  0:outin_31= 849.4155m  0:outin_32= 849.4155m
 + 0:outin_40=   8.8161m  0:outin_41=   8.8161m  0:outin_42=   8.8161m
 + 0:vdd     = 850.0000m

 ******  
 $this uut was automatically generated by:

  ******  transient analysis tnom=  25.000 temp=  25.000 *****
 trf_delay_001=   3.0061p  targ=  33.6597p   trig=  30.6536p
 tfr_delay_001=   2.4020p  targ=   1.0810n   trig=   1.0786n
 trf_delay_002=   2.7616p  targ=   2.0328n   trig=   2.0301n
 tfr_delay_002=  -1.0369n  targ=   2.0397n   trig=   3.0766n
 trf_delay_003=  -1.9895n  targ=   2.0407n   trig=   4.0302n
 tfr_delay_003=  -1.9982n  targ=   3.0805n   trig=   5.0786n
 trf_delay_004=  -1.9976n  targ=   4.0328n   trig=   6.0304n
 tfr_delay_004=  -1.9967n  targ=   5.0819n   trig=   7.0786n
 trf_delay_101=   1.2651p  targ=   1.0822n   trig=   1.0810n
 tfr_delay_101=   2.8806p  targ=  36.5404p   trig=  33.6597p
 trf_delay_102=   1.0430n  targ=   3.0827n   trig=   2.0397n
 tfr_delay_102=   3.3456p  targ=   2.0362n   trig=   2.0328n
 trf_delay_103=   2.0042n  targ=   5.0847n   trig=   3.0805n
 tfr_delay_103=   1.9955n  targ=   4.0362n   trig=   2.0407n
 trf_delay_104=   2.0030n  targ=   7.0849n   trig=   5.0819n
 tfr_delay_104=   2.0030n  targ=   6.0358n   trig=   4.0328n
 trf_delay_201= 567.3841f  targ=  37.1078p   trig=  36.5404p
 tfr_delay_201=   1.5444p  targ=   1.0838n   trig=   1.0822n
 trf_delay_202= 361.3848f  targ=   2.0366n   trig=   2.0362n
 tfr_delay_202=   1.3714p  targ=   3.0840n   trig=   3.0827n
 trf_delay_203=   1.1679p  targ=   4.0374n   trig=   4.0362n
 tfr_delay_203=   1.7182p  targ=   5.0864n   trig=   5.0847n
 trf_delay_204=-946.5043p  targ=   5.0893n   trig=   6.0358n
 tfr_delay_204=  -1.9943n  targ=   5.0906n   trig=   7.0849n
 trf_delay_011=   3.0061p  targ=  33.6597p   trig=  30.6536p
 tfr_delay_011=   3.3446p  targ=   2.0823n   trig=   2.0790n
 trf_delay_012=   2.5746p  targ=   4.0328n   trig=   4.0302n
 tfr_delay_012=   3.5152p  targ=   6.0826n   trig=   6.0791n
 trf_delay_111=   2.3961p  targ=   2.0847n   trig=   2.0823n
 tfr_delay_111=   2.8806p  targ=  36.5404p   trig=  33.6597p
 trf_delay_112=   2.6954p  targ=   6.0853n   trig=   6.0826n
 tfr_delay_112=   3.4279p  targ=   4.0362n   trig=   4.0328n
 trf_delay_211= 567.3841f  targ=  37.1078p   trig=  36.5404p
 tfr_delay_211= 891.0244f  targ=   2.0856n   trig=   2.0847n
 trf_delay_212=   1.1679p  targ=   4.0374n   trig=   4.0362n
 tfr_delay_212= 705.9802f  targ=   6.0860n   trig=   6.0853n
 trf_delay_021=   3.0061p  targ=  33.6597p   trig=  30.6536p
 tfr_delay_021=   3.7957p  targ=   4.0829n   trig=   4.0791n
 trf_delay_121=   1.8816p  targ=   4.0848n   trig=   4.0829n
 tfr_delay_121=   2.8806p  targ=  36.5404p   trig=  33.6597p
 trf_delay_221= 567.3841f  targ=  37.1078p   trig=  36.5404p
 tfr_delay_221=   2.6554p  targ=   4.0874n   trig=   4.0848n
x

        time    voltage      voltage    
                 outin_00     outin_10  
    0.          599.0589u    849.4156m  
   10.00000p     13.7712m    850.2114m  
   20.00000p     65.7624m    849.4864m  
   30.00000p    386.3391m    749.7965m  
   40.00000p    817.2124m     35.6287m  
   50.00000p    842.8202m    865.8601u  
   60.00000p    849.4229m    607.5457u  
   70.00000p    849.4468m    596.7736u  
   80.00000p    849.4255m    607.5401u  
   90.00000p    849.4084m    616.1252u  
  100.00000p    849.4153m    612.6740u  
  110.00000p    849.4221m    609.2228u  
  120.00000p    849.4290m    605.7715u  
  130.00000p    849.4358m    602.3203u  
  140.00000p    849.4390m    600.7333u  
  150.00000p    849.4367m    601.8777u  
  160.00000p    849.4344m    603.0221u  
  170.00000p    849.4322m    604.1664u  
  180.00000p    849.4299m    605.3108u  
  190.00000p    849.4276m    606.4552u  
  200.00000p    849.4253m    607.5996u  
  210.00000p    849.4231m    608.7440u  
  220.00000p    849.4208m    609.8884u  
  230.00000p    849.4185m    611.0328u  
  240.00000p    849.4162m    612.1772u  
  250.00000p    849.4140m    613.3216u  
  260.00000p    849.4117m    614.4659u  
  270.00000p    849.4101m    615.2624u  
  280.00000p    849.4112m    614.7129u  
  290.00000p    849.4123m    614.1634u  
  300.00000p    849.4134m    613.6140u  
  310.00000p    849.4145m    613.0645u  
  320.00000p    849.4156m    612.5150u  
  330.00000p    849.4167m    611.9655u  
  340.00000p    849.4178m    611.4161u  
  350.00000p    849.4189m    610.8666u  
  360.00000p    849.4199m    610.3171u  
  370.00000p    849.4210m    609.7677u  
  380.00000p    849.4221m    609.2182u  
  390.00000p    849.4232m    608.6687u  
  400.00000p    849.4243m    608.1192u  
  410.00000p    849.4254m    607.5698u  
  420.00000p    849.4265m    607.0203u  
  430.00000p    849.4276m    606.4708u  
  440.00000p    849.4287m    605.9214u  
  450.00000p    849.4298m    605.3719u  
  460.00000p    849.4309m    604.8224u  
  470.00000p    849.4320m    604.2730u  
  480.00000p    849.4331m    603.7235u  
  490.00000p    849.4341m    603.1740u  
  500.00000p    849.4352m    602.6245u  
  510.00000p    849.4363m    602.0751u  
  520.00000p    849.4374m    601.5256u  
  530.00000p    849.4385m    600.9761u  
  540.00000p    849.4386m    600.9535u  
  550.00000p    849.4378m    601.3128u  
  560.00000p    849.4371m    601.6721u  
  570.00000p    849.4364m    602.0314u  
  580.00000p    849.4357m    602.3908u  
  590.00000p    849.4350m    602.7501u  
  600.00000p    849.4343m    603.1094u  
  610.00000p    849.4336m    603.4687u  
  620.00000p    849.4328m    603.8280u  
  630.00000p    849.4321m    604.1873u  
  640.00000p    849.4314m    604.5466u  
  650.00000p    849.4307m    604.9059u  
  660.00000p    849.4300m    605.2653u  
  670.00000p    849.4293m    605.6246u  
  680.00000p    849.4286m    605.9839u  
  690.00000p    849.4278m    606.3432u  
  700.00000p    849.4271m    606.7025u  
  710.00000p    849.4264m    607.0618u  
  720.00000p    849.4257m    607.4211u  
  730.00000p    849.4250m    607.7804u  
  740.00000p    849.4243m    608.1398u  
  750.00000p    849.4236m    608.4991u  
  760.00000p    849.4228m    608.8584u  
  770.00000p    849.4221m    609.2177u  
  780.00000p    849.4214m    609.5770u  
  790.00000p    849.4207m    609.9363u  
  800.00000p    849.4200m    610.2956u  
  810.00000p    849.4193m    610.6549u  
  820.00000p    849.4186m    611.0143u  
  830.00000p    849.4178m    611.3736u  
  840.00000p    849.4171m    611.7329u  
  850.00000p    849.4164m    612.0922u  
  860.00000p    849.4157m    612.4515u  
  870.00000p    849.4150m    612.8108u  
  880.00000p    849.4143m    613.1701u  
  890.00000p    849.4136m    613.5295u  
  900.00000p    849.4128m    613.8888u  
  910.00000p    849.4121m    614.2481u  
  920.00000p    849.4114m    614.6074u  
  930.00000p    849.4107m    614.9667u  
  940.00000p    849.4118m    614.4205u  
  950.00000p    849.4142m    613.2178u  
  960.00000p    849.4166m    612.0151u  
  970.00000p    849.4190m    610.8124u  
  980.00000p    849.4214m    609.6097u  
  990.00000p    849.4237m    608.4070u  
    1.00000n    849.4261m    607.2043u  
    1.01000n    849.4285m    606.0016u  
    1.02000n    849.4309m    604.7988u  
    1.03000n    849.4333m    603.5961u  
    1.04000n    849.4357m    602.3934u  
    1.05000n    849.4381m    601.1907u  
    1.06000n    837.5788m   -267.6530u  
    1.07000n    671.9937m     21.4054m  
    1.08000n    352.5890m    345.9439m  
    1.09000n     24.2788m    851.1704m  
    1.10000n      5.7463m    849.1358m  
    1.11000n    575.9858u    849.4207m  
    1.12000n    613.8911u    849.4134m  
    1.13000n    581.3550u    849.4171m  
    1.14000n    594.1254u    849.4161m  
    1.15000n    606.8958u    849.4151m  
    1.16000n    617.1621u    849.4143m  
    1.17000n    613.3341u    849.4145m  
    1.18000n    609.5061u    849.4148m  
    1.19000n    605.6781u    849.4151m  
    1.20000n    601.8501u    849.4153m  
    1.21000n    598.0221u    849.4156m  
    1.22000n    594.1941u    849.4158m  
    1.23000n    590.3661u    849.4161m  
    1.24000n    586.5381u    849.4164m  
    1.25000n    582.7101u    849.4166m  
    1.26000n    582.1216u    849.4167m  
    1.27000n    583.9856u    849.4165m  
    1.28000n    585.8496u    849.4164m  
    1.29000n    587.7136u    849.4163m  
    1.30000n    589.5776u    849.4162m  
    1.31000n    591.4416u    849.4161m  
    1.32000n    593.3056u    849.4159m  
    1.33000n    595.1696u    849.4158m  
    1.34000n    597.0336u    849.4157m  
    1.35000n    598.8976u    849.4156m  
    1.36000n    600.7617u    849.4155m  
    1.37000n    602.6257u    849.4153m  
    1.38000n    604.4897u    849.4152m  
    1.39000n    606.3537u    849.4151m  
    1.40000n    608.2177u    849.4150m  
    1.41000n    610.0817u    849.4149m  
    1.42000n    611.9457u    849.4147m  
    1.43000n    613.8097u    849.4146m  
    1.44000n    615.6737u    849.4145m  
    1.45000n    616.3384u    849.4145m  
    1.46000n    615.4590u    849.4145m  
    1.47000n    614.5797u    849.4146m  
    1.48000n    613.7003u    849.4146m  
    1.49000n    612.8210u    849.4147m  
    1.50000n    611.9416u    849.4147m  
    1.51000n    611.0623u    849.4148m  
    1.52000n    610.1829u    849.4148m  
    1.53000n    609.3036u    849.4149m  
    1.54000n    608.4242u    849.4150m  
    1.55000n    607.5448u    849.4150m  
    1.56000n    606.6655u    849.4151m  
    1.57000n    605.7861u    849.4151m  
    1.58000n    604.9068u    849.4152m  
    1.59000n    604.0274u    849.4152m  
    1.60000n    603.1481u    849.4153m  
    1.61000n    602.2687u    849.4153m  
    1.62000n    601.3893u    849.4154m  
    1.63000n    600.5100u    849.4155m  
    1.64000n    599.6306u    849.4155m  
    1.65000n    598.7513u    849.4156m  
    1.66000n    597.8719u    849.4156m  
    1.67000n    596.9926u    849.4157m  
    1.68000n    596.1132u    849.4157m  
    1.69000n    595.2338u    849.4158m  
    1.70000n    594.3545u    849.4158m  
    1.71000n    593.4751u    849.4159m  
    1.72000n    592.5958u    849.4160m  
    1.73000n    591.7164u    849.4160m  
    1.74000n    590.8371u    849.4161m  
    1.75000n    589.9577u    849.4161m  
    1.76000n    589.0783u    849.4162m  
    1.77000n    588.1990u    849.4162m  
    1.78000n    587.3196u    849.4163m  
    1.79000n    586.4403u    849.4163m  
    1.80000n    585.5609u    849.4164m  
    1.81000n    584.6816u    849.4164m  
    1.82000n    583.8022u    849.4165m  
    1.83000n    582.9228u    849.4166m  
    1.84000n    582.0435u    849.4166m  
    1.85000n    582.5289u    849.4166m  
    1.86000n    584.7715u    849.4164m  
    1.87000n    587.0141u    849.4163m  
    1.88000n    589.2566u    849.4162m  
    1.89000n    591.4992u    849.4160m  
    1.90000n    593.7418u    849.4159m  
    1.91000n    595.9844u    849.4158m  
    1.92000n    598.2269u    849.4156m  
    1.93000n    600.4695u    849.4155m  
    1.94000n    602.7121u    849.4154m  
    1.95000n    604.9546u    849.4152m  
    1.96000n    607.1972u    849.4151m  
    1.97000n    609.4398u    849.4149m  
    1.98000n    611.6824u    849.4148m  
    1.99000n    613.9249u    849.4147m  
    2.00000n    616.1675u    849.4145m  
    2.01000n     12.3917m    850.2958m  
    2.02000n     93.6406m    840.1829m  
    2.03000n    420.8509m    686.1210m  
    2.04000n    881.5543m    509.9128m  
    2.05000n      1.1516      -1.1574   
    2.06000n    911.3896m    -92.1785m  
    2.07000n    849.4879m    621.9667u  
    2.08000n    849.4659m    695.6229u  
    2.09000n    849.4257m    610.2405u  
    2.10000n    849.4118m    578.5801u  
    2.11000n    849.4247m    608.1744u  
    2.12000n    849.4246m    607.9273u  
    2.13000n    849.4247m    608.2639u  
    2.14000n    849.4246m    608.0644u  
    2.15000n    849.4245m    607.8648u  
    2.16000n    849.4244m    607.6652u  
    2.17000n    849.4245m    607.7396u  
    2.18000n    849.4245m    607.8241u  
    2.19000n    849.4245m    607.9086u  
    2.20000n    849.4246m    607.9930u  
    2.21000n    849.4246m    608.0775u  
    2.22000n    849.4247m    608.1619u  
    2.23000n    849.4247m    608.2464u  
    2.24000n    849.4247m    608.2982u  
    2.25000n    849.4247m    608.2621u  
    2.26000n    849.4247m    608.2259u  
    2.27000n    849.4247m    608.1898u  
    2.28000n    849.4247m    608.1536u  
    2.29000n    849.4246m    608.1175u  
    2.30000n    849.4246m    608.0813u  
    2.31000n    849.4246m    608.0452u  
    2.32000n    849.4246m    608.0090u  
    2.33000n    849.4246m    607.9729u  
    2.34000n    849.4246m    607.9367u  
    2.35000n    849.4245m    607.9006u  
    2.36000n    849.4245m    607.8644u  
    2.37000n    849.4245m    607.8283u  
    2.38000n    849.4245m    607.7921u  
    2.39000n    849.4245m    607.7560u  
    2.40000n    849.4245m    607.7198u  
    2.41000n    849.4244m    607.6837u  
    2.42000n    849.4244m    607.6658u  
    2.43000n    849.4244m    607.6847u  
    2.44000n    849.4245m    607.7036u  
    2.45000n    849.4245m    607.7224u  
    2.46000n    849.4245m    607.7413u  
    2.47000n    849.4245m    607.7602u  
    2.48000n    849.4245m    607.7790u  
    2.49000n    849.4245m    607.7979u  
    2.50000n    849.4245m    607.8168u  
    2.51000n    849.4245m    607.8356u  
    2.52000n    849.4245m    607.8545u  
    2.53000n    849.4245m    607.8734u  
    2.54000n    849.4245m    607.8922u  
    2.55000n    849.4245m    607.9111u  
    2.56000n    849.4246m    607.9300u  
    2.57000n    849.4246m    607.9488u  
    2.58000n    849.4246m    607.9677u  
    2.59000n    849.4246m    607.9866u  
    2.60000n    849.4246m    608.0054u  
    2.61000n    849.4246m    608.0243u  
    2.62000n    849.4246m    608.0432u  
    2.63000n    849.4246m    608.0620u  
    2.64000n    849.4246m    608.0809u  
    2.65000n    849.4246m    608.0998u  
    2.66000n    849.4246m    608.1186u  
    2.67000n    849.4247m    608.1375u  
    2.68000n    849.4247m    608.1564u  
    2.69000n    849.4247m    608.1752u  
    2.70000n    849.4247m    608.1941u  
    2.71000n    849.4247m    608.2130u  
    2.72000n    849.4247m    608.2318u  
    2.73000n    849.4247m    608.2507u  
    2.74000n    849.4247m    608.2696u  
    2.75000n    849.4247m    608.2884u  
    2.76000n    849.4247m    608.3073u  
    2.77000n    849.4247m    608.2851u  
    2.78000n    849.4247m    608.2628u  
    2.79000n    849.4247m    608.2405u  
    2.80000n    849.4247m    608.2181u  
    2.81000n    849.4247m    608.1958u  
    2.82000n    849.4247m    608.1735u  
    2.83000n    849.4247m    608.1512u  
    2.84000n    849.4247m    608.1288u  
    2.85000n    849.4246m    608.1065u  
    2.86000n    849.4246m    608.0842u  
    2.87000n    849.4246m    608.0619u  
    2.88000n    849.4246m    608.0395u  
    2.89000n    849.4246m    608.0172u  
    2.90000n    849.4246m    607.9949u  
    2.91000n    849.4246m    607.9726u  
    2.92000n    849.4246m    607.9502u  
    2.93000n    849.4246m    607.9279u  
    2.94000n    849.4245m    607.9056u  
    2.95000n    849.4245m    607.8833u  
    2.96000n    849.4245m    607.8609u  
    2.97000n    849.4245m    607.8386u  
    2.98000n    849.4245m    607.8163u  
    2.99000n    849.4245m    607.7940u  
    3.00000n    849.4245m    607.7716u  
    3.01000n    849.4245m    607.7493u  
    3.02000n    849.4245m    607.7270u  
    3.03000n    849.4245m    607.7047u  
    3.04000n    849.4244m    607.6823u  
    3.05000n    849.4244m    607.6600u  
    3.06000n    702.7984m     33.2693m  
    3.07000n    556.1724m     65.9309m  
    3.08000n    296.5307m    391.9036m  
    3.09000n     29.0929m    843.7612m  
    3.10000n      5.6698m    848.9914m  
    3.11000n    573.4901u    849.4253m  
    3.12000n    617.1070u    849.4104m  
    3.13000n    580.1031u    849.4196m  
    3.14000n    592.1649u    849.4172m  
    3.15000n    604.2268u    849.4147m  
    3.16000n    616.2887u    849.4122m  
    3.17000n    614.4788u    849.4125m  
    3.18000n    610.8056u    849.4132m  
    3.19000n    607.1324u    849.4140m  
    3.20000n    603.4591u    849.4147m  
    3.21000n    599.7859u    849.4154m  
    3.22000n    596.1127u    849.4161m  
    3.23000n    592.4394u    849.4168m  
    3.24000n    588.7662u    849.4175m  
    3.25000n    585.0929u    849.4182m  
    3.26000n    581.4197u    849.4189m  
    3.27000n    582.7138u    849.4186m  
    3.28000n    584.5147u    849.4183m  
    3.29000n    586.3156u    849.4180m  
    3.30000n    588.1165u    849.4176m  
    3.31000n    589.9174u    849.4173m  
    3.32000n    591.7183u    849.4170m  
    3.33000n    593.5192u    849.4166m  
    3.34000n    595.3201u    849.4163m  
    3.35000n    597.1210u    849.4159m  
    3.36000n    598.9219u    849.4156m  
    3.37000n    600.7228u    849.4153m  
    3.38000n    602.5237u    849.4149m  
    3.39000n    604.3247u    849.4146m  
    3.40000n    606.1256u    849.4143m  
    3.41000n    607.9265u    849.4139m  
    3.42000n    609.7274u    849.4136m  
    3.43000n    611.5283u    849.4132m  
    3.44000n    613.3292u    849.4129m  
    3.45000n    615.1301u    849.4126m  
    3.46000n    616.5926u    849.4123m  
    3.47000n    615.7144u    849.4125m  
    3.48000n    614.8361u    849.4126m  
    3.49000n    613.9579u    849.4128m  
    3.50000n    613.0796u    849.4129m  
    3.51000n    612.2014u    849.4131m  
    3.52000n    611.3231u    849.4133m  
    3.53000n    610.4449u    849.4134m  
    3.54000n    609.5666u    849.4136m  
    3.55000n    608.6883u    849.4138m  
    3.56000n    607.8101u    849.4139m  
    3.57000n    606.9318u    849.4141m  
    3.58000n    606.0536u    849.4142m  
    3.59000n    605.1753u    849.4144m  
    3.60000n    604.2971u    849.4146m  
    3.61000n    603.4188u    849.4147m  
    3.62000n    602.5405u    849.4149m  
    3.63000n    601.6623u    849.4151m  
    3.64000n    600.7840u    849.4152m  
    3.65000n    599.9058u    849.4154m  
    3.66000n    599.0275u    849.4155m  
    3.67000n    598.1493u    849.4157m  
    3.68000n    597.2710u    849.4159m  
    3.69000n    596.3928u    849.4160m  
    3.70000n    595.5145u    849.4162m  
    3.71000n    594.6362u    849.4164m  
    3.72000n    593.7580u    849.4165m  
    3.73000n    592.8797u    849.4167m  
    3.74000n    592.0015u    849.4168m  
    3.75000n    591.1232u    849.4170m  
    3.76000n    590.2450u    849.4172m  
    3.77000n    589.3667u    849.4173m  
    3.78000n    588.4885u    849.4175m  
    3.79000n    587.6102u    849.4177m  
    3.80000n    586.7319u    849.4178m  
    3.81000n    585.8537u    849.4180m  
    3.82000n    584.9754u    849.4181m  
    3.83000n    584.0972u    849.4183m  
    3.84000n    583.2189u    849.4185m  
    3.85000n    582.3407u    849.4186m  
    3.86000n    581.8819u    849.4187m  
    3.87000n    584.3254u    849.4183m  
    3.88000n    586.7690u    849.4178m  
    3.89000n    589.2125u    849.4174m  
    3.90000n    591.6561u    849.4169m  
    3.91000n    594.0996u    849.4165m  
    3.92000n    596.5431u    849.4160m  
    3.93000n    598.9867u    849.4156m  
    3.94000n    601.4302u    849.4152m  
    3.95000n    603.8737u    849.4147m  
    3.96000n    606.3173u    849.4143m  
    3.97000n    608.7608u    849.4138m  
    3.98000n    611.2043u    849.4134m  
    3.99000n    613.6479u    849.4129m  
    4.00000n    616.0914u    849.4125m  
    4.01000n     12.1855m    850.3100m  
    4.02000n     99.4543m    840.0042m  
    4.03000n    415.5970m    664.6554m  
    4.04000n    699.9335m   -827.6475m  
    4.05000n      1.2729    -892.9089m  
    4.06000n    850.3054m   -420.5019u  
    4.07000n    849.4232m    610.2065u  
    4.08000n    849.4219m    604.8475u  
    4.09000n    849.4237m    605.8156u  
    4.10000n    849.4245m    607.9853u  
    4.11000n    849.4246m    607.9837u  
    4.12000n    849.4246m    607.9836u  
    4.13000n    849.4246m    607.9836u  
    4.14000n    849.4246m    607.9836u  
    4.15000n    849.4246m    607.9836u  
    4.16000n    849.4246m    607.9836u  
    4.17000n    849.4246m    607.9836u  
    4.18000n    849.4246m    607.9836u  
    4.19000n    849.4246m    607.9836u  
    4.20000n    849.4246m    607.9836u  
    4.21000n    849.4246m    607.9836u  
    4.22000n    849.4246m    607.9836u  
    4.23000n    849.4246m    607.9836u  
    4.24000n    849.4246m    607.9836u  
    4.25000n    849.4246m    607.9836u  
    4.26000n    849.4246m    607.9836u  
    4.27000n    849.4246m    607.9836u  
    4.28000n    849.4246m    607.9836u  
    4.29000n    849.4246m    607.9836u  
    4.30000n    849.4246m    607.9836u  
    4.31000n    849.4246m    607.9836u  
    4.32000n    849.4246m    607.9836u  
    4.33000n    849.4246m    607.9836u  
    4.34000n    849.4246m    607.9836u  
    4.35000n    849.4246m    607.9836u  
    4.36000n    849.4246m    607.9836u  
    4.37000n    849.4246m    607.9836u  
    4.38000n    849.4246m    607.9836u  
    4.39000n    849.4246m    607.9836u  
    4.40000n    849.4246m    607.9836u  
    4.41000n    849.4246m    607.9836u  
    4.42000n    849.4246m    607.9836u  
    4.43000n    849.4246m    607.9836u  
    4.44000n    849.4246m    607.9836u  
    4.45000n    849.4246m    607.9836u  
    4.46000n    849.4246m    607.9836u  
    4.47000n    849.4246m    607.9836u  
    4.48000n    849.4246m    607.9836u  
    4.49000n    849.4246m    607.9836u  
    4.50000n    849.4246m    607.9836u  
    4.51000n    849.4246m    607.9836u  
    4.52000n    849.4246m    607.9836u  
    4.53000n    849.4246m    607.9836u  
    4.54000n    849.4246m    607.9836u  
    4.55000n    849.4246m    607.9836u  
    4.56000n    849.4246m    607.9836u  
    4.57000n    849.4246m    607.9836u  
    4.58000n    849.4246m    607.9836u  
    4.59000n    849.4246m    607.9836u  
    4.60000n    849.4246m    607.9836u  
    4.61000n    849.4246m    607.9836u  
    4.62000n    849.4246m    607.9836u  
    4.63000n    849.4246m    607.9836u  
    4.64000n    849.4246m    607.9836u  
    4.65000n    849.4246m    607.9836u  
    4.66000n    849.4246m    607.9836u  
    4.67000n    849.4246m    607.9836u  
    4.68000n    849.4246m    607.9836u  
    4.69000n    849.4246m    607.9836u  
    4.70000n    849.4246m    607.9836u  
    4.71000n    849.4246m    607.9836u  
    4.72000n    849.4246m    607.9836u  
    4.73000n    849.4246m    607.9836u  
    4.74000n    849.4246m    607.9836u  
    4.75000n    849.4246m    607.9836u  
    4.76000n    849.4246m    607.9836u  
    4.77000n    849.4246m    607.9836u  
    4.78000n    849.4246m    607.9836u  
    4.79000n    849.4246m    607.9836u  
    4.80000n    849.4246m    607.9836u  
    4.81000n    849.4246m    607.9836u  
    4.82000n    849.4246m    607.9836u  
    4.83000n    849.4246m    607.9836u  
    4.84000n    849.4246m    607.9836u  
    4.85000n    849.4246m    607.9836u  
    4.86000n    849.4246m    607.9836u  
    4.87000n    849.4246m    607.9836u  
    4.88000n    849.4246m    607.9836u  
    4.89000n    849.4246m    607.9836u  
    4.90000n    849.4246m    607.9836u  
    4.91000n    849.4246m    607.9836u  
    4.92000n    849.4246m    607.9836u  
    4.93000n    849.4246m    607.9836u  
    4.94000n    849.4246m    607.9836u  
    4.95000n    849.4246m    607.9836u  
    4.96000n    849.4246m    607.9836u  
    4.97000n    849.4246m    607.9836u  
    4.98000n    849.4246m    607.9836u  
    4.99000n    849.4246m    607.9836u  
    5.00000n    849.4246m    607.9836u  
    5.01000n    849.4246m    607.9836u  
    5.02000n    849.4246m    607.9836u  
    5.03000n    849.4246m    607.9836u  
    5.04000n    849.4246m    607.9836u  
    5.05000n    849.4246m    607.9836u  
    5.06000n    836.2650m   -206.9361u  
    5.07000n    733.0323m      9.1828m  
    5.08000n    349.5129m    244.6421m  
    5.09000n    -62.7375m    556.0588m  
    5.10000n   -840.3949m      1.4842   
    5.11000n    362.4484u    849.9457m  
    5.12000n    599.1713u    849.4148m  
    5.13000n    599.4847u    849.4157m  
    5.14000n    598.0935u    849.4155m  
    5.15000n    598.0834u    849.4154m  
    5.16000n    598.5357u    849.4154m  
    5.17000n    598.9881u    849.4154m  
    5.18000n    599.4405u    849.4154m  
    5.19000n    599.8929u    849.4154m  
    5.20000n    600.3453u    849.4154m  
    5.21000n    600.2531u    849.4154m  
    5.22000n    600.1105u    849.4154m  
    5.23000n    599.9679u    849.4154m  
    5.24000n    599.8253u    849.4154m  
    5.25000n    599.6827u    849.4154m  
    5.26000n    599.5401u    849.4154m  
    5.27000n    599.3974u    849.4154m  
    5.28000n    599.2548u    849.4154m  
    5.29000n    599.1122u    849.4154m  
    5.30000n    598.9696u    849.4155m  
    5.31000n    598.8270u    849.4155m  
    5.32000n    598.6844u    849.4155m  
    5.33000n    598.5418u    849.4155m  
    5.34000n    598.3992u    849.4155m  
    5.35000n    598.2566u    849.4155m  
    5.36000n    598.1140u    849.4155m  
    5.37000n    597.9714u    849.4155m  
    5.38000n    597.8288u    849.4155m  
    5.39000n    597.7378u    849.4155m  
    5.40000n    597.8046u    849.4155m  
    5.41000n    597.8713u    849.4155m  
    5.42000n    597.9380u    849.4155m  
    5.43000n    598.0048u    849.4155m  
    5.44000n    598.0715u    849.4155m  
    5.45000n    598.1382u    849.4155m  
    5.46000n    598.2050u    849.4155m  
    5.47000n    598.2717u    849.4155m  
    5.48000n    598.3385u    849.4155m  
    5.49000n    598.4052u    849.4155m  
    5.50000n    598.4719u    849.4155m  
    5.51000n    598.5387u    849.4155m  
    5.52000n    598.6054u    849.4155m  
    5.53000n    598.6721u    849.4155m  
    5.54000n    598.7389u    849.4155m  
    5.55000n    598.8056u    849.4155m  
    5.56000n    598.8724u    849.4154m  
    5.57000n    598.9391u    849.4154m  
    5.58000n    599.0058u    849.4154m  
    5.59000n    599.0726u    849.4154m  
    5.60000n    599.1393u    849.4154m  
    5.61000n    599.2060u    849.4154m  
    5.62000n    599.2728u    849.4154m  
    5.63000n    599.3395u    849.4154m  
    5.64000n    599.4062u    849.4154m  
    5.65000n    599.4730u    849.4154m  
    5.66000n    599.5397u    849.4154m  
    5.67000n    599.6065u    849.4154m  
    5.68000n    599.6732u    849.4154m  
    5.69000n    599.7399u    849.4154m  
    5.70000n    599.8067u    849.4154m  
    5.71000n    599.8734u    849.4154m  
    5.72000n    599.9401u    849.4154m  
    5.73000n    600.0069u    849.4154m  
    5.74000n    600.0736u    849.4154m  
    5.75000n    600.1404u    849.4154m  
    5.76000n    600.2071u    849.4153m  
    5.77000n    600.2738u    849.4153m  
    5.78000n    600.3406u    849.4153m  
    5.79000n    600.3597u    849.4153m  
    5.80000n    600.2338u    849.4153m  
    5.81000n    600.1079u    849.4154m  
    5.82000n    599.9819u    849.4154m  
    5.83000n    599.8560u    849.4154m  
    5.84000n    599.7301u    849.4154m  
    5.85000n    599.6041u    849.4154m  
    5.86000n    599.4782u    849.4154m  
    5.87000n    599.3523u    849.4154m  
    5.88000n    599.2263u    849.4154m  
    5.89000n    599.1004u    849.4154m  
    5.90000n    598.9745u    849.4155m  
    5.91000n    598.8485u    849.4155m  
    5.92000n    598.7226u    849.4155m  
    5.93000n    598.5967u    849.4155m  
    5.94000n    598.4707u    849.4155m  
    5.95000n    598.3448u    849.4155m  
    5.96000n    598.2189u    849.4155m  
    5.97000n    598.0929u    849.4155m  
    5.98000n    597.9670u    849.4155m  
    5.99000n    597.8410u    849.4156m  
    6.00000n    597.7151u    849.4156m  
    6.01000n     13.1559m    850.2378m  
    6.02000n     63.6825m    849.8093m  
    6.03000n    407.2279m    555.5438m  
    6.04000n    811.3201m      9.7838m  
    6.05000n    693.1633m   -915.7212m  
    6.06000n    863.7455m    -14.3338m  
    6.07000n    849.4202m    611.9958u  
    6.08000n    849.4256m    609.6874u  
    6.09000n    849.4244m    608.0528u  
    6.10000n    849.4225m    606.7590u  
    6.11000n    849.4246m    607.9886u  
    6.12000n    849.4246m    607.9783u  
    6.13000n    849.4246m    607.9857u  
    6.14000n    849.4246m    607.9892u  
    6.15000n    849.4246m    607.9865u  
    6.16000n    849.4246m    607.9837u  
    6.17000n    849.4246m    607.9809u  
    6.18000n    849.4246m    607.9781u  
    6.19000n    849.4246m    607.9775u  
    6.20000n    849.4246m    607.9789u  
    6.21000n    849.4246m    607.9802u  
    6.22000n    849.4246m    607.9816u  
    6.23000n    849.4246m    607.9830u  
    6.24000n    849.4246m    607.9843u  
    6.25000n    849.4246m    607.9857u  
    6.26000n    849.4246m    607.9871u  
    6.27000n    849.4246m    607.9884u  
    6.28000n    849.4246m    607.9898u  
    6.29000n    849.4246m    607.9899u  
    6.30000n    849.4246m    607.9892u  
    6.31000n    849.4246m    607.9886u  
    6.32000n    849.4246m    607.9879u  
    6.33000n    849.4246m    607.9872u  
    6.34000n    849.4246m    607.9866u  
    6.35000n    849.4246m    607.9859u  
    6.36000n    849.4246m    607.9852u  
    6.37000n    849.4246m    607.9846u  
    6.38000n    849.4246m    607.9839u  
    6.39000n    849.4246m    607.9833u  
    6.40000n    849.4246m    607.9826u  
    6.41000n    849.4246m    607.9819u  
    6.42000n    849.4246m    607.9813u  
    6.43000n    849.4246m    607.9806u  
    6.44000n    849.4246m    607.9799u  
    6.45000n    849.4246m    607.9793u  
    6.46000n    849.4246m    607.9786u  
    6.47000n    849.4246m    607.9779u  
    6.48000n    849.4246m    607.9773u  
    6.49000n    849.4246m    607.9769u  
    6.50000n    849.4246m    607.9772u  
    6.51000n    849.4246m    607.9776u  
    6.52000n    849.4246m    607.9780u  
    6.53000n    849.4246m    607.9783u  
    6.54000n    849.4246m    607.9787u  
    6.55000n    849.4246m    607.9791u  
    6.56000n    849.4246m    607.9794u  
    6.57000n    849.4246m    607.9798u  
    6.58000n    849.4246m    607.9802u  
    6.59000n    849.4246m    607.9805u  
    6.60000n    849.4246m    607.9809u  
    6.61000n    849.4246m    607.9812u  
    6.62000n    849.4246m    607.9816u  
    6.63000n    849.4246m    607.9820u  
    6.64000n    849.4246m    607.9823u  
    6.65000n    849.4246m    607.9827u  
    6.66000n    849.4246m    607.9831u  
    6.67000n    849.4246m    607.9834u  
    6.68000n    849.4246m    607.9838u  
    6.69000n    849.4246m    607.9842u  
    6.70000n    849.4246m    607.9845u  
    6.71000n    849.4246m    607.9849u  
    6.72000n    849.4246m    607.9853u  
    6.73000n    849.4246m    607.9856u  
    6.74000n    849.4246m    607.9860u  
    6.75000n    849.4246m    607.9864u  
    6.76000n    849.4246m    607.9867u  
    6.77000n    849.4246m    607.9871u  
    6.78000n    849.4246m    607.9875u  
    6.79000n    849.4246m    607.9878u  
    6.80000n    849.4246m    607.9882u  
    6.81000n    849.4246m    607.9886u  
    6.82000n    849.4246m    607.9889u  
    6.83000n    849.4246m    607.9893u  
    6.84000n    849.4246m    607.9896u  
    6.85000n    849.4246m    607.9900u  
    6.86000n    849.4246m    607.9902u  
    6.87000n    849.4246m    607.9895u  
    6.88000n    849.4246m    607.9888u  
    6.89000n    849.4246m    607.9881u  
    6.90000n    849.4246m    607.9874u  
    6.91000n    849.4246m    607.9867u  
    6.92000n    849.4246m    607.9860u  
    6.93000n    849.4246m    607.9853u  
    6.94000n    849.4246m    607.9846u  
    6.95000n    849.4246m    607.9838u  
    6.96000n    849.4246m    607.9831u  
    6.97000n    849.4246m    607.9824u  
    6.98000n    849.4246m    607.9817u  
    6.99000n    849.4246m    607.9810u  
    7.00000n    849.4246m    607.9803u  
    7.01000n    849.4246m    607.9796u  
    7.02000n    849.4246m    607.9789u  
    7.03000n    849.4246m    607.9782u  
    7.04000n    849.4246m    607.9775u  
    7.05000n    849.4246m    607.9768u  
    7.06000n    835.8222m   -183.0901u  
    7.07000n    744.8041m      7.1123m  
    7.08000n    349.4880m    218.0257m  
    7.09000n    386.0995m      2.8737   
    7.10000n     -1.2190       1.8811   
    7.11000n      1.9669u    850.7116m  
    7.12000n    606.1967u    849.4282m  
    7.13000n    591.2533u    849.4056m  
    7.14000n    596.6390u    849.4121m  
    7.15000n    602.7099u    849.4197m  
    7.16000n    607.1762u    849.4252m  
    7.17000n    605.0103u    849.4227m  
    7.18000n    602.8445u    849.4201m  
    7.19000n    600.6787u    849.4176m  
    7.20000n    598.5128u    849.4150m  
    7.21000n    596.3470u    849.4125m  
    7.22000n    594.1812u    849.4099m  
    7.23000n    592.0154u    849.4074m  
    7.24000n    590.7145u    849.4058m  
    7.25000n    591.7026u    849.4070m  
    7.26000n    592.6907u    849.4081m  
    7.27000n    593.6788u    849.4093m  
    7.28000n    594.6669u    849.4104m  
    7.29000n    595.6549u    849.4116m  
    7.30000n    596.6430u    849.4127m  
    7.31000n    597.6311u    849.4138m  
    7.32000n    598.6192u    849.4150m  
    7.33000n    599.6073u    849.4161m  
    7.34000n    600.5954u    849.4173m  
    7.35000n    601.5835u    849.4184m  
    7.36000n    602.5716u    849.4196m  
    7.37000n    603.5597u    849.4207m  
    7.38000n    604.5477u    849.4219m  
    7.39000n    605.5358u    849.4230m  
    7.40000n    606.5239u    849.4241m  
    7.41000n    607.5120u    849.4253m  
    7.42000n    607.3278u    849.4251m  
    7.43000n    606.8577u    849.4245m  
    7.44000n    606.3875u    849.4240m  
    7.45000n    605.9173u    849.4235m  
    7.46000n    605.4471u    849.4229m  
    7.47000n    604.9770u    849.4224m  
    7.48000n    604.5068u    849.4218m  
    7.49000n    604.0366u    849.4213m  
    7.50000n    603.5664u    849.4208m  
    7.51000n    603.0963u    849.4202m  
    7.52000n    602.6261u    849.4197m  
    7.53000n    602.1559u    849.4191m  
    7.54000n    601.6857u    849.4186m  
    7.55000n    601.2156u    849.4181m  
    7.56000n    600.7454u    849.4175m  
    7.57000n    600.2752u    849.4170m  
    7.58000n    599.8050u    849.4164m  
    7.59000n    599.3349u    849.4159m  
    7.60000n    598.8647u    849.4154m  
    7.61000n    598.3945u    849.4148m  
    7.62000n    597.9243u    849.4143m  
    7.63000n    597.4541u    849.4137m  
    7.64000n    596.9840u    849.4132m  
    7.65000n    596.5138u    849.4127m  
    7.66000n    596.0436u    849.4121m  
    7.67000n    595.5734u    849.4116m  
    7.68000n    595.1033u    849.4110m  
    7.69000n    594.6331u    849.4105m  
    7.70000n    594.1629u    849.4100m  
    7.71000n    593.6927u    849.4094m  
    7.72000n    593.2226u    849.4089m  
    7.73000n    592.7524u    849.4083m  
    7.74000n    592.2822u    849.4078m  
    7.75000n    591.8120u    849.4073m  
    7.76000n    591.3419u    849.4067m  
    7.77000n    590.8717u    849.4062m  
    7.78000n    590.4015u    849.4056m  
    7.79000n    591.1803u    849.4065m  
    7.80000n    591.9707u    849.4074m  
    7.81000n    592.7610u    849.4083m  
    7.82000n    593.5514u    849.4092m  
    7.83000n    594.3418u    849.4101m  
    7.84000n    595.1321u    849.4110m  
    7.85000n    595.9225u    849.4119m  
    7.86000n    596.7128u    849.4128m  
    7.87000n    597.5032u    849.4137m  
    7.88000n    598.2935u    849.4146m  
    7.89000n    599.0839u    849.4155m  
    7.90000n    599.8743u    849.4164m  
    7.91000n    600.6646u    849.4173m  
    7.92000n    601.4550u    849.4182m  
    7.93000n    602.2453u    849.4191m  
    7.94000n    603.0357u    849.4200m  
    7.95000n    603.8260u    849.4209m  
    7.96000n    604.6164u    849.4218m  
    7.97000n    605.4068u    849.4227m  
    7.98000n    606.1971u    849.4236m  
    7.99000n    606.9875u    849.4245m  
    8.00000n    607.7778u    849.4254m  
y
x

        time    voltage      voltage    
                 outin_10     outin_20  
    0.          849.4156m    608.1248u  
   10.00000p    850.2114m    643.2470u  
   20.00000p    849.4864m    540.8368u  
   30.00000p    749.7965m     -1.6901m  
   40.00000p     35.6287m    811.9463m  
   50.00000p    865.8601u    849.7164m  
   60.00000p    607.5457u    849.4269m  
   70.00000p    596.7736u    849.3976m  
   80.00000p    607.5401u    849.4157m  
   90.00000p    616.1252u    849.4301m  
  100.00000p    612.6740u    849.4237m  
  110.00000p    609.2228u    849.4173m  
  120.00000p    605.7715u    849.4109m  
  130.00000p    602.3203u    849.4045m  
  140.00000p    600.7333u    849.4016m  
  150.00000p    601.8777u    849.4038m  
  160.00000p    603.0221u    849.4060m  
  170.00000p    604.1664u    849.4082m  
  180.00000p    605.3108u    849.4104m  
  190.00000p    606.4552u    849.4126m  
  200.00000p    607.5996u    849.4148m  
  210.00000p    608.7440u    849.4170m  
  220.00000p    609.8884u    849.4192m  
  230.00000p    611.0328u    849.4214m  
  240.00000p    612.1772u    849.4236m  
  250.00000p    613.3216u    849.4258m  
  260.00000p    614.4659u    849.4280m  
  270.00000p    615.2624u    849.4296m  
  280.00000p    614.7129u    849.4285m  
  290.00000p    614.1634u    849.4274m  
  300.00000p    613.6140u    849.4263m  
  310.00000p    613.0645u    849.4253m  
  320.00000p    612.5150u    849.4242m  
  330.00000p    611.9655u    849.4231m  
  340.00000p    611.4161u    849.4220m  
  350.00000p    610.8666u    849.4210m  
  360.00000p    610.3171u    849.4199m  
  370.00000p    609.7677u    849.4188m  
  380.00000p    609.2182u    849.4178m  
  390.00000p    608.6687u    849.4167m  
  400.00000p    608.1192u    849.4156m  
  410.00000p    607.5698u    849.4145m  
  420.00000p    607.0203u    849.4135m  
  430.00000p    606.4708u    849.4124m  
  440.00000p    605.9214u    849.4113m  
  450.00000p    605.3719u    849.4103m  
  460.00000p    604.8224u    849.4092m  
  470.00000p    604.2730u    849.4081m  
  480.00000p    603.7235u    849.4070m  
  490.00000p    603.1740u    849.4060m  
  500.00000p    602.6245u    849.4049m  
  510.00000p    602.0751u    849.4038m  
  520.00000p    601.5256u    849.4027m  
  530.00000p    600.9761u    849.4017m  
  540.00000p    600.9535u    849.4016m  
  550.00000p    601.3128u    849.4023m  
  560.00000p    601.6721u    849.4030m  
  570.00000p    602.0314u    849.4038m  
  580.00000p    602.3908u    849.4045m  
  590.00000p    602.7501u    849.4052m  
  600.00000p    603.1094u    849.4059m  
  610.00000p    603.4687u    849.4066m  
  620.00000p    603.8280u    849.4073m  
  630.00000p    604.1873u    849.4080m  
  640.00000p    604.5466u    849.4087m  
  650.00000p    604.9059u    849.4094m  
  660.00000p    605.2653u    849.4101m  
  670.00000p    605.6246u    849.4108m  
  680.00000p    605.9839u    849.4115m  
  690.00000p    606.3432u    849.4122m  
  700.00000p    606.7025u    849.4129m  
  710.00000p    607.0618u    849.4137m  
  720.00000p    607.4211u    849.4144m  
  730.00000p    607.7804u    849.4151m  
  740.00000p    608.1398u    849.4158m  
  750.00000p    608.4991u    849.4165m  
  760.00000p    608.8584u    849.4172m  
  770.00000p    609.2177u    849.4179m  
  780.00000p    609.5770u    849.4186m  
  790.00000p    609.9363u    849.4193m  
  800.00000p    610.2956u    849.4200m  
  810.00000p    610.6549u    849.4207m  
  820.00000p    611.0143u    849.4214m  
  830.00000p    611.3736u    849.4221m  
  840.00000p    611.7329u    849.4228m  
  850.00000p    612.0922u    849.4235m  
  860.00000p    612.4515u    849.4243m  
  870.00000p    612.8108u    849.4250m  
  880.00000p    613.1701u    849.4257m  
  890.00000p    613.5295u    849.4264m  
  900.00000p    613.8888u    849.4271m  
  910.00000p    614.2481u    849.4278m  
  920.00000p    614.6074u    849.4285m  
  930.00000p    614.9667u    849.4292m  
  940.00000p    614.4205u    849.4281m  
  950.00000p    613.2178u    849.4257m  
  960.00000p    612.0151u    849.4233m  
  970.00000p    610.8124u    849.4209m  
  980.00000p    609.6097u    849.4185m  
  990.00000p    608.4070u    849.4161m  
    1.00000n    607.2043u    849.4137m  
    1.01000n    606.0016u    849.4113m  
    1.02000n    604.7988u    849.4089m  
    1.03000n    603.5961u    849.4065m  
    1.04000n    602.3934u    849.4041m  
    1.05000n    601.1907u    849.4017m  
    1.06000n   -267.6530u    849.3294m  
    1.07000n     21.4054m    849.9842m  
    1.08000n    345.9439m    582.0672m  
    1.09000n    851.1704m      6.6305m  
    1.10000n    849.1358m    702.1485u  
    1.11000n    849.4207m    625.7331u  
    1.12000n    849.4134m    596.1201u  
    1.13000n    849.4171m    623.4006u  
    1.14000n    849.4161m    612.2720u  
    1.15000n    849.4151m    601.1433u  
    1.16000n    849.4143m    592.2032u  
    1.17000n    849.4145m    595.5810u  
    1.18000n    849.4148m    598.9588u  
    1.19000n    849.4151m    602.3365u  
    1.20000n    849.4153m    605.7143u  
    1.21000n    849.4156m    609.0921u  
    1.22000n    849.4158m    612.4698u  
    1.23000n    849.4161m    615.8476u  
    1.24000n    849.4164m    619.2254u  
    1.25000n    849.4166m    622.6031u  
    1.26000n    849.4167m    623.1177u  
    1.27000n    849.4165m    621.4648u  
    1.28000n    849.4164m    619.8119u  
    1.29000n    849.4163m    618.1590u  
    1.30000n    849.4162m    616.5061u  
    1.31000n    849.4161m    614.8532u  
    1.32000n    849.4159m    613.2003u  
    1.33000n    849.4158m    611.5474u  
    1.34000n    849.4157m    609.8945u  
    1.35000n    849.4156m    608.2416u  
    1.36000n    849.4155m    606.5887u  
    1.37000n    849.4153m    604.9358u  
    1.38000n    849.4152m    603.2829u  
    1.39000n    849.4151m    601.6300u  
    1.40000n    849.4150m    599.9771u  
    1.41000n    849.4149m    598.3242u  
    1.42000n    849.4147m    596.6713u  
    1.43000n    849.4146m    595.0184u  
    1.44000n    849.4145m    593.3655u  
    1.45000n    849.4145m    592.7769u  
    1.46000n    849.4145m    593.5585u  
    1.47000n    849.4146m    594.3402u  
    1.48000n    849.4146m    595.1218u  
    1.49000n    849.4147m    595.9035u  
    1.50000n    849.4147m    596.6851u  
    1.51000n    849.4148m    597.4668u  
    1.52000n    849.4148m    598.2485u  
    1.53000n    849.4149m    599.0301u  
    1.54000n    849.4150m    599.8118u  
    1.55000n    849.4150m    600.5934u  
    1.56000n    849.4151m    601.3751u  
    1.57000n    849.4151m    602.1567u  
    1.58000n    849.4152m    602.9384u  
    1.59000n    849.4152m    603.7200u  
    1.60000n    849.4153m    604.5017u  
    1.61000n    849.4153m    605.2834u  
    1.62000n    849.4154m    606.0650u  
    1.63000n    849.4155m    606.8467u  
    1.64000n    849.4155m    607.6283u  
    1.65000n    849.4156m    608.4100u  
    1.66000n    849.4156m    609.1916u  
    1.67000n    849.4157m    609.9733u  
    1.68000n    849.4157m    610.7550u  
    1.69000n    849.4158m    611.5366u  
    1.70000n    849.4158m    612.3183u  
    1.71000n    849.4159m    613.0999u  
    1.72000n    849.4160m    613.8816u  
    1.73000n    849.4160m    614.6632u  
    1.74000n    849.4161m    615.4449u  
    1.75000n    849.4161m    616.2266u  
    1.76000n    849.4162m    617.0082u  
    1.77000n    849.4162m    617.7899u  
    1.78000n    849.4163m    618.5715u  
    1.79000n    849.4163m    619.3532u  
    1.80000n    849.4164m    620.1348u  
    1.81000n    849.4164m    620.9165u  
    1.82000n    849.4165m    621.6981u  
    1.83000n    849.4166m    622.4798u  
    1.84000n    849.4166m    623.2615u  
    1.85000n    849.4166m    622.8275u  
    1.86000n    849.4164m    620.8285u  
    1.87000n    849.4163m    618.8294u  
    1.88000n    849.4162m    616.8304u  
    1.89000n    849.4160m    614.8313u  
    1.90000n    849.4159m    612.8323u  
    1.91000n    849.4158m    610.8332u  
    1.92000n    849.4156m    608.8342u  
    1.93000n    849.4155m    606.8351u  
    1.94000n    849.4154m    604.8361u  
    1.95000n    849.4152m    602.8370u  
    1.96000n    849.4151m    600.8380u  
    1.97000n    849.4149m    598.8389u  
    1.98000n    849.4148m    596.8399u  
    1.99000n    849.4147m    594.8408u  
    2.00000n    849.4145m    592.8418u  
    2.01000n    850.2958m    666.9553u  
    2.02000n    840.1829m    470.5527u  
    2.03000n    686.1210m     35.1065m  
    2.04000n    509.9128m      2.6641   
    2.05000n     -1.1574       2.0388   
    2.06000n    -92.1785m    976.2205m  
    2.07000n    621.9667u    849.5103m  
    2.08000n    695.6229u    849.4683m  
    2.09000n    610.2405u    849.4169m  
    2.10000n    578.5801u    849.3983m  
    2.11000n    608.1744u    849.4155m  
    2.12000n    607.9273u    849.4154m  
    2.13000n    608.2639u    849.4155m  
    2.14000n    608.0644u    849.4155m  
    2.15000n    607.8648u    849.4154m  
    2.16000n    607.6652u    849.4153m  
    2.17000n    607.7396u    849.4153m  
    2.18000n    607.8241u    849.4153m  
    2.19000n    607.9086u    849.4154m  
    2.20000n    607.9930u    849.4154m  
    2.21000n    608.0775u    849.4155m  
    2.22000n    608.1619u    849.4155m  
    2.23000n    608.2464u    849.4155m  
    2.24000n    608.2982u    849.4155m  
    2.25000n    608.2621u    849.4155m  
    2.26000n    608.2259u    849.4155m  
    2.27000n    608.1898u    849.4155m  
    2.28000n    608.1536u    849.4155m  
    2.29000n    608.1175u    849.4155m  
    2.30000n    608.0813u    849.4155m  
    2.31000n    608.0452u    849.4154m  
    2.32000n    608.0090u    849.4154m  
    2.33000n    607.9729u    849.4154m  
    2.34000n    607.9367u    849.4154m  
    2.35000n    607.9006u    849.4154m  
    2.36000n    607.8644u    849.4154m  
    2.37000n    607.8283u    849.4154m  
    2.38000n    607.7921u    849.4153m  
    2.39000n    607.7560u    849.4153m  
    2.40000n    607.7198u    849.4153m  
    2.41000n    607.6837u    849.4153m  
    2.42000n    607.6658u    849.4153m  
    2.43000n    607.6847u    849.4153m  
[...]
    3.68000n    849.4154m    608.1268u  
    3.69000n    849.4154m    608.1268u  
    3.70000n    849.4154m    608.1268u  
    3.71000n    849.4154m    608.1268u  
    3.72000n    849.4154m    608.1268u  
    3.73000n    849.4154m    608.1268u  
    3.74000n    849.4154m    608.1268u  
    3.75000n    849.4154m    608.1268u  
    3.76000n    849.4154m    608.1268u  
    3.77000n    849.4154m    608.1268u  
    3.78000n    849.4154m    608.1268u  
    3.79000n    849.4154m    608.1268u  
    3.80000n    849.4154m    608.1268u  
    3.81000n    849.4154m    608.1268u  
    3.82000n    849.4154m    608.1268u  
    3.83000n    849.4154m    608.1268u  
    3.84000n    849.4154m    608.1268u  
    3.85000n    849.4154m    608.1268u  
    3.86000n    849.4154m    608.1268u  
    3.87000n    849.4154m    608.1268u  
    3.88000n    849.4154m    608.1268u  
    3.89000n    849.4154m    608.1268u  
    3.90000n    849.4154m    608.1268u  
    3.91000n    849.4154m    608.1268u  
    3.92000n    849.4154m    608.1268u  
    3.93000n    849.4154m    608.1268u  
    3.94000n    849.4154m    608.1268u  
    3.95000n    849.4154m    608.1268u  
    3.96000n    849.4154m    608.1268u  
    3.97000n    849.4154m    608.1268u  
    3.98000n    849.4154m    608.1268u  
    3.99000n    849.4154m    608.1268u  
    4.00000n    849.4154m    608.1268u  
    4.01000n    849.4154m    608.1268u  
    4.02000n    849.4154m    608.1268u  
    4.03000n    849.4154m    608.1268u  
    4.04000n    849.4154m    608.1268u  
    4.05000n    849.4154m    608.1268u  
    4.06000n    849.3771m    610.6976u  
    4.07000n    849.6833m    619.7383u  
    4.08000n    839.2279m    -10.8805u  
    4.09000n     -1.5064     643.0942m  
    4.10000n   -709.3985m    934.1135m  
    4.11000n     68.8004u    849.5980m  
    4.12000n    616.1500u    849.4268m  
    4.13000n    605.5909u    849.4123m  
    4.14000n    591.8373u    849.3903m  
    4.15000n    601.4472u    849.4051m  
    4.16000n    611.0570u    849.4199m  
    4.17000n    620.6669u    849.4346m  
    4.18000n    627.1275u    849.4446m  
    4.19000n    622.9709u    849.4382m  
    4.20000n    618.8142u    849.4319m  
    4.21000n    614.6575u    849.4256m  
    4.22000n    610.5009u    849.4192m  
    4.23000n    606.3442u    849.4129m  
    4.24000n    602.1876u    849.4066m  
    4.25000n    598.0309u    849.4002m  
    4.26000n    593.8743u    849.3939m  
    4.27000n    589.7176u    849.3875m  
    4.28000n    589.2937u    849.3869m  
    4.29000n    591.2335u    849.3898m  
    4.30000n    593.1734u    849.3928m  
    4.31000n    595.1132u    849.3957m  
    4.32000n    597.0530u    849.3987m  
    4.33000n    598.9928u    849.4016m  
    4.34000n    600.9326u    849.4046m  
    4.35000n    602.8724u    849.4075m  
    4.36000n    604.8122u    849.4105m  
    4.37000n    606.7520u    849.4134m  
    4.38000n    608.6919u    849.4164m  
    4.39000n    610.6317u    849.4193m  
    4.40000n    612.5715u    849.4223m  
    4.41000n    614.5113u    849.4252m  
    4.42000n    616.4511u    849.4282m  
    4.43000n    618.3909u    849.4311m  
    4.44000n    620.3307u    849.4341m  
    4.45000n    622.2705u    849.4370m  
    4.46000n    624.2103u    849.4400m  
    4.47000n    626.1502u    849.4429m  
    4.48000n    628.0900u    849.4458m  
    4.49000n    627.2115u    849.4445m  
    4.50000n    626.2088u    849.4430m  
    4.51000n    625.2060u    849.4415m  
    4.52000n    624.2033u    849.4399m  
    4.53000n    623.2006u    849.4384m  
    4.54000n    622.1979u    849.4369m  
    4.55000n    621.1951u    849.4354m  
    4.56000n    620.1924u    849.4339m  
    4.57000n    619.1897u    849.4323m  
    4.58000n    618.1870u    849.4308m  
    4.59000n    617.1842u    849.4293m  
    4.60000n    616.1815u    849.4278m  
    4.61000n    615.1788u    849.4263m  
    4.62000n    614.1761u    849.4247m  
    4.63000n    613.1733u    849.4232m  
    4.64000n    612.1706u    849.4217m  
    4.65000n    611.1679u    849.4202m  
    4.66000n    610.1652u    849.4187m  
    4.67000n    609.1625u    849.4171m  
    4.68000n    608.1597u    849.4156m  
    4.69000n    607.1570u    849.4141m  
    4.70000n    606.1543u    849.4126m  
    4.71000n    605.1516u    849.4110m  
    4.72000n    604.1488u    849.4095m  
    4.73000n    603.1461u    849.4080m  
    4.74000n    602.1434u    849.4065m  
    4.75000n    601.1407u    849.4050m  
    4.76000n    600.1379u    849.4034m  
    4.77000n    599.1352u    849.4019m  
    4.78000n    598.1325u    849.4004m  
    4.79000n    597.1298u    849.3989m  
    4.80000n    596.1270u    849.3974m  
    4.81000n    595.1243u    849.3958m  
    4.82000n    594.1216u    849.3943m  
    4.83000n    593.1189u    849.3928m  
    4.84000n    592.1161u    849.3913m  
    4.85000n    591.1134u    849.3897m  
    4.86000n    590.1107u    849.3882m  
    4.87000n    589.1080u    849.3867m  
    4.88000n    588.1052u    849.3852m  
    4.89000n    590.3308u    849.3886m  
    4.90000n    592.6987u    849.3921m  
    4.91000n    595.0666u    849.3957m  
    4.92000n    597.4345u    849.3993m  
    4.93000n    599.8024u    849.4029m  
    4.94000n    602.1703u    849.4065m  
    4.95000n    604.5382u    849.4101m  
    4.96000n    606.9061u    849.4137m  
    4.97000n    609.2740u    849.4172m  
    4.98000n    611.6419u    849.4208m  
    4.99000n    614.0098u    849.4244m  
    5.00000n    616.3777u    849.4280m  
    5.01000n    618.7456u    849.4316m  
    5.02000n    621.1135u    849.4352m  
    5.03000n    623.4815u    849.4388m  
    5.04000n    625.8494u    849.4424m  
    5.05000n    628.2173u    849.4459m  
    5.06000n    608.0958u    849.4155m  
    5.07000n    608.1247u    849.4155m  
    5.08000n    608.1248u    849.4155m  
    5.09000n    608.1245u    849.4155m  
    5.10000n    608.1248u    849.4155m  
    5.11000n    608.1248u    849.4155m  
    5.12000n    608.1248u    849.4155m  
    5.13000n    608.1248u    849.4155m  
    5.14000n    608.1248u    849.4155m  
    5.15000n    608.1248u    849.4155m  
    5.16000n    608.1248u    849.4155m  
    5.17000n    608.1248u    849.4155m  
    5.18000n    608.1248u    849.4155m  
    5.19000n    608.1248u    849.4155m  
    5.20000n    608.1248u    849.4155m  
    5.21000n    608.1248u    849.4155m  
    5.22000n    608.1248u    849.4155m  
    5.23000n    608.1248u    849.4155m  
    5.24000n    608.1248u    849.4155m  
    5.25000n    608.1248u    849.4155m  
    5.26000n    608.1248u    849.4155m  
    5.27000n    608.1248u    849.4155m  
    5.28000n    608.1248u    849.4155m  
    5.29000n    608.1248u    849.4155m  
    5.30000n    608.1248u    849.4155m  
    5.31000n    608.1248u    849.4155m  
    5.32000n    608.1248u    849.4155m  
    5.33000n    608.1248u    849.4155m  
    5.34000n    608.1248u    849.4155m  
    5.35000n    608.1248u    849.4155m  
    5.36000n    608.1248u    849.4155m  
    5.37000n    608.1248u    849.4155m  
    5.38000n    608.1248u    849.4155m  
    5.39000n    608.1248u    849.4155m  
    5.40000n    608.1248u    849.4155m  
    5.41000n    608.1248u    849.4155m  
    5.42000n    608.1248u    849.4155m  
    5.43000n    608.1248u    849.4155m  
    5.44000n    608.1248u    849.4155m  
    5.45000n    608.1248u    849.4155m  
    5.46000n    608.1248u    849.4155m  
    5.47000n    608.1248u    849.4155m  
    5.48000n    608.1248u    849.4155m  
    5.49000n    608.1248u    849.4155m  
    5.50000n    608.1248u    849.4155m  
    5.51000n    608.1248u    849.4155m  
    5.52000n    608.1248u    849.4155m  
    5.53000n    608.1248u    849.4155m  
    5.54000n    608.1248u    849.4155m  
    5.55000n    608.1248u    849.4155m  
    5.56000n    608.1248u    849.4155m  
    5.57000n    608.1248u    849.4155m  
    5.58000n    608.1248u    849.4155m  
    5.59000n    608.1248u    849.4155m  
    5.60000n    608.1248u    849.4155m  
    5.61000n    608.1248u    849.4155m  
    5.62000n    608.1248u    849.4155m  
    5.63000n    608.1248u    849.4155m  
    5.64000n    608.1248u    849.4155m  
    5.65000n    608.1248u    849.4155m  
    5.66000n    608.1248u    849.4155m  
    5.67000n    608.1248u    849.4155m  
    5.68000n    608.1248u    849.4155m  
    5.69000n    608.1248u    849.4155m  
    5.70000n    608.1248u    849.4155m  
    5.71000n    608.1248u    849.4155m  
    5.72000n    608.1248u    849.4155m  
    5.73000n    608.1248u    849.4155m  
    5.74000n    608.1248u    849.4155m  
    5.75000n    608.1248u    849.4155m  
    5.76000n    608.1248u    849.4155m  
    5.77000n    608.1248u    849.4155m  
    5.78000n    608.1248u    849.4155m  
    5.79000n    608.1248u    849.4155m  
    5.80000n    608.1248u    849.4155m  
    5.81000n    608.1248u    849.4155m  
    5.82000n    608.1248u    849.4155m  
    5.83000n    608.1248u    849.4155m  
    5.84000n    608.1248u    849.4155m  
    5.85000n    608.1248u    849.4155m  
    5.86000n    608.1248u    849.4155m  
    5.87000n    608.1248u    849.4155m  
    5.88000n    608.1248u    849.4155m  
    5.89000n    608.1248u    849.4155m  
    5.90000n    608.1248u    849.4155m  
    5.91000n    608.1248u    849.4155m  
    5.92000n    608.1248u    849.4155m  
    5.93000n    608.1248u    849.4155m  
    5.94000n    608.1248u    849.4155m  
    5.95000n    608.1248u    849.4155m  
    5.96000n    608.1248u    849.4155m  
    5.97000n    608.1248u    849.4155m  
    5.98000n    608.1248u    849.4155m  
    5.99000n    608.1248u    849.4155m  
    6.00000n    608.1248u    849.4155m  
    6.01000n    608.1248u    849.4155m  
    6.02000n    608.1248u    849.4155m  
    6.03000n    608.1248u    849.4155m  
    6.04000n    608.1248u    849.4155m  
    6.05000n    608.1248u    849.4155m  
    6.06000n    608.1248u    849.4155m  
    6.07000n    608.1248u    849.4155m  
    6.08000n    608.1248u    849.4155m  
    6.09000n    608.1248u    849.4155m  
    6.10000n    608.1248u    849.4155m  
    6.11000n    608.1248u    849.4155m  
    6.12000n    608.1248u    849.4155m  
    6.13000n    608.1248u    849.4155m  
    6.14000n    608.1248u    849.4155m  
    6.15000n    608.1248u    849.4155m  
    6.16000n    608.1248u    849.4155m  
    6.17000n    608.1248u    849.4155m  
    6.18000n    608.1248u    849.4155m  
    6.19000n    608.1248u    849.4155m  
    6.20000n    608.1248u    849.4155m  
    6.21000n    608.1248u    849.4155m  
    6.22000n    608.1248u    849.4155m  
    6.23000n    608.1248u    849.4155m  
    6.24000n    608.1248u    849.4155m  
    6.25000n    608.1248u    849.4155m  
    6.26000n    608.1248u    849.4155m  
    6.27000n    608.1248u    849.4155m  
    6.28000n    608.1248u    849.4155m  
    6.29000n    608.1248u    849.4155m  
    6.30000n    608.1248u    849.4155m  
    6.31000n    608.1248u    849.4155m  
    6.32000n    608.1248u    849.4155m  
    6.33000n    608.1248u    849.4155m  
    6.34000n    608.1248u    849.4155m  
    6.35000n    608.1248u    849.4155m  
    6.36000n    608.1248u    849.4155m  
    6.37000n    608.1248u    849.4155m  
    6.38000n    608.1248u    849.4155m  
    6.39000n    608.1248u    849.4155m  
    6.40000n    608.1248u    849.4155m  
    6.41000n    608.1248u    849.4155m  
    6.42000n    608.1248u    849.4155m  
    6.43000n    608.1248u    849.4155m  
    6.44000n    608.1248u    849.4155m  
    6.45000n    608.1248u    849.4155m  
    6.46000n    608.1248u    849.4155m  
    6.47000n    608.1248u    849.4155m  
    6.48000n    608.1248u    849.4155m  
    6.49000n    608.1248u    849.4155m  
    6.50000n    608.1248u    849.4155m  
    6.51000n    608.1248u    849.4155m  
    6.52000n    608.1248u    849.4155m  
    6.53000n    608.1248u    849.4155m  
    6.54000n    608.1248u    849.4155m  
    6.55000n    608.1248u    849.4155m  
    6.56000n    608.1248u    849.4155m  
    6.57000n    608.1248u    849.4155m  
    6.58000n    608.1248u    849.4155m  
    6.59000n    608.1248u    849.4155m  
    6.60000n    608.1248u    849.4155m  
    6.61000n    608.1248u    849.4155m  
    6.62000n    608.1248u    849.4155m  
    6.63000n    608.1248u    849.4155m  
    6.64000n    608.1248u    849.4155m  
    6.65000n    608.1248u    849.4155m  
    6.66000n    608.1248u    849.4155m  
    6.67000n    608.1248u    849.4155m  
    6.68000n    608.1248u    849.4155m  
    6.69000n    608.1248u    849.4155m  
    6.70000n    608.1248u    849.4155m  
    6.71000n    608.1248u    849.4155m  
    6.72000n    608.1248u    849.4155m  
    6.73000n    608.1248u    849.4155m  
    6.74000n    608.1248u    849.4155m  
    6.75000n    608.1248u    849.4155m  
    6.76000n    608.1248u    849.4155m  
    6.77000n    608.1248u    849.4155m  
    6.78000n    608.1248u    849.4155m  
    6.79000n    608.1248u    849.4155m  
    6.80000n    608.1248u    849.4155m  
    6.81000n    608.1248u    849.4155m  
    6.82000n    608.1248u    849.4155m  
    6.83000n    608.1248u    849.4155m  
    6.84000n    608.1248u    849.4155m  
    6.85000n    608.1248u    849.4155m  
    6.86000n    608.1248u    849.4155m  
    6.87000n    608.1248u    849.4155m  
    6.88000n    608.1248u    849.4155m  
    6.89000n    608.1248u    849.4155m  
    6.90000n    608.1248u    849.4155m  
    6.91000n    608.1248u    849.4155m  
    6.92000n    608.1248u    849.4155m  
    6.93000n    608.1248u    849.4155m  
    6.94000n    608.1248u    849.4155m  
    6.95000n    608.1248u    849.4155m  
    6.96000n    608.1248u    849.4155m  
    6.97000n    608.1248u    849.4155m  
    6.98000n    608.1248u    849.4155m  
    6.99000n    608.1248u    849.4155m  
    7.00000n    608.1248u    849.4155m  
    7.01000n    608.1248u    849.4155m  
    7.02000n    608.1248u    849.4155m  
    7.03000n    608.1248u    849.4155m  
    7.04000n    608.1248u    849.4155m  
    7.05000n    608.1248u    849.4155m  
    7.06000n    608.1248u    849.4155m  
    7.07000n    608.1248u    849.4155m  
    7.08000n    608.1248u    849.4155m  
    7.09000n    608.1248u    849.4155m  
    7.10000n    608.1248u    849.4155m  
    7.11000n    608.1248u    849.4155m  
    7.12000n    608.1248u    849.4155m  
    7.13000n    608.1248u    849.4155m  
    7.14000n    608.1248u    849.4155m  
    7.15000n    608.1248u    849.4155m  
    7.16000n    608.1248u    849.4155m  
    7.17000n    608.1248u    849.4155m  
    7.18000n    608.1248u    849.4155m  
    7.19000n    608.1248u    849.4155m  
    7.20000n    608.1248u    849.4155m  
    7.21000n    608.1248u    849.4155m  
    7.22000n    608.1248u    849.4155m  
    7.23000n    608.1248u    849.4155m  
    7.24000n    608.1248u    849.4155m  
    7.25000n    608.1248u    849.4155m  
    7.26000n    608.1248u    849.4155m  
    7.27000n    608.1248u    849.4155m  
    7.28000n    608.1248u    849.4155m  
    7.29000n    608.1248u    849.4155m  
    7.30000n    608.1248u    849.4155m  
    7.31000n    608.1248u    849.4155m  
    7.32000n    608.1248u    849.4155m  
    7.33000n    608.1248u    849.4155m  
    7.34000n    608.1248u    849.4155m  
    7.35000n    608.1248u    849.4155m  
    7.36000n    608.1248u    849.4155m  
    7.37000n    608.1248u    849.4155m  
    7.38000n    608.1248u    849.4155m  
    7.39000n    608.1248u    849.4155m  
    7.40000n    608.1248u    849.4155m  
    7.41000n    608.1248u    849.4155m  
    7.42000n    608.1248u    849.4155m  
    7.43000n    608.1248u    849.4155m  
    7.44000n    608.1248u    849.4155m  
    7.45000n    608.1248u    849.4155m  
    7.46000n    608.1248u    849.4155m  
    7.47000n    608.1248u    849.4155m  
    7.48000n    608.1248u    849.4155m  
    7.49000n    608.1248u    849.4155m  
    7.50000n    608.1248u    849.4155m  
    7.51000n    608.1248u    849.4155m  
    7.52000n    608.1248u    849.4155m  
    7.53000n    608.1248u    849.4155m  
    7.54000n    608.1248u    849.4155m  
    7.55000n    608.1248u    849.4155m  
    7.56000n    608.1248u    849.4155m  
    7.57000n    608.1248u    849.4155m  
    7.58000n    608.1248u    849.4155m  
    7.59000n    608.1248u    849.4155m  
    7.60000n    608.1248u    849.4155m  
    7.61000n    608.1248u    849.4155m  
    7.62000n    608.1248u    849.4155m  
    7.63000n    608.1248u    849.4155m  
    7.64000n    608.1248u    849.4155m  
    7.65000n    608.1248u    849.4155m  
    7.66000n    608.1248u    849.4155m  
    7.67000n    608.1248u    849.4155m  
    7.68000n    608.1248u    849.4155m  
    7.69000n    608.1248u    849.4155m  
    7.70000n    608.1248u    849.4155m  
    7.71000n    608.1248u    849.4155m  
    7.72000n    608.1248u    849.4155m  
    7.73000n    608.1248u    849.4155m  
    7.74000n    608.1248u    849.4155m  
    7.75000n    608.1248u    849.4155m  
    7.76000n    608.1248u    849.4155m  
    7.77000n    608.1248u    849.4155m  
    7.78000n    608.1248u    849.4155m  
    7.79000n    608.1248u    849.4155m  
    7.80000n    608.1248u    849.4155m  
    7.81000n    608.1248u    849.4155m  
    7.82000n    608.1248u    849.4155m  
    7.83000n    608.1248u    849.4155m  
    7.84000n    608.1248u    849.4155m  
    7.85000n    608.1248u    849.4155m  
    7.86000n    608.1248u    849.4155m  
    7.87000n    608.1248u    849.4155m  
    7.88000n    608.1248u    849.4155m  
    7.89000n    608.1248u    849.4155m  
    7.90000n    608.1248u    849.4155m  
    7.91000n    608.1248u    849.4155m  
    7.92000n    608.1248u    849.4155m  
    7.93000n    608.1248u    849.4155m  
    7.94000n    608.1248u    849.4155m  
    7.95000n    608.1248u    849.4155m  
    7.96000n    608.1248u    849.4155m  
    7.97000n    608.1248u    849.4155m  
    7.98000n    608.1248u    849.4155m  
    7.99000n    608.1248u    849.4155m  
    8.00000n    608.1248u    849.4155m  
y
 inv_avg_power00=   2.8802u  from=   0.          to=   8.0000n
 peakpower00= 846.2251u    at=   7.0887n
             from=   0.         to=   8.0000n
 power_avg=  12.9074u  from=   0.          to=   8.0000n
 avg_power= 5.129e+12  from=   0.          to=   8.0000n

          ***** job concluded
1****** HSPICE -- F-2011.09-SP2 64-BIT (Feb 27 2012) linux ******               
 ******  
 $this uut was automatically generated by:

  ******  job statistics summary tnom=  25.000 temp=  25.000 *****
  
  
 ******  Machine Information  ******
 CPU:
 model name	: Intel(R) Xeon(R) CPU E5-2650 v4 @ 2.20GHz
 cpu MHz	: 2650.914
  
 OS:
 Linux version 3.10.0-693.17.1.el7.x86_64 (mockbuild@x86-041.build.eng.bos.redha
 t.com) (gcc version 4.8.5 20150623 (Red Hat 4.8.5-16) (GCC) ) #1 SMP Sun Jan 14
  10:36:03 EST 2018


  ******  HSPICE Threads Information  ******

  Command Line Threads Count :     1
  Available CPU Count        :    24
  Actual Threads Count       :     1


  ******  Circuit Statistics  ******
  # nodes       =      83 # elements   =      34
  # resistors   =       0 # capacitors =       0 # inductors   =       0
  # mutual_inds =       0 # vccs       =       0 # vcvs        =       0
  # cccs        =       0 # ccvs       =       0 # volt_srcs   =       4
  # curr_srcs   =       0 # diodes     =       0 # bjts        =       0
  # jfets       =       0 # mosfets    =      30 # U elements  =       0
  # T elements  =       0 # W elements =       0 # B elements  =       0
  # S elements  =       0 # P elements =       0 # va device   =       0
  # vector_srcs =       0


  ******  Runtime Statistics (seconds)  ******

  analysis           time    # points   tot. iter  conv.iter
  op point           0.06           1         221
  transient          0.27         801        2391         326 rev=        22
  readin             0.01
  errchk             0.00
  setup              0.00
  output             0.01


           peak memory used        135.46 megabytes
           total cpu time            0.35 seconds
           total elapsed time        0.60 seconds
           job started at     18:49:36 09/11/2020
           job ended   at     18:49:37 09/11/2020


 lic: Release hspice token(s) 
