 ****** HSPICE -- F-2011.09-SP2 64-BIT (Feb 27 2012) linux ******               
  Copyright (C) 2011 Synopsys, Inc. All Rights Reserved.                        
  Unpublished-rights reserved under US copyright laws.
  This program is protected by law and is subject to the
  terms and conditions of the license agreement from Synopsys.
  Use of this program is your acceptance to be bound by the
  license agreement. HSPICE is the trademark of Synopsys, Inc.
  Input File: ptm14hp.sp                                                        
  Command line options: ptm14hp.sp
 lic:  
 lic: FLEXlm: v10.8 
 lic: USER:   iliabautista         HOSTNAME: itn1.rc.usf.edu 
 lic: HOSTID:                      PID:      182846 
 lic: Using FLEXlm license file: 
 lic: 27000@license0.rc.usf.edu 
 lic: Checkout 1 hspice 
 lic: License/Maintenance for hspice will expire on 18-jul-2021/2019.06 
 lic: 1(in_use)/50(total) FLOATING license(s) on SERVER license0.rc.usf.edu 
 lic:   
  **warning** (../modelfiles/hp/14nfet.pm:4) Model nfet device geometries will not be checked against the limits set by lmin, lmax, nfinmin and nfinmax. To enable this check, add a period(.) to the model name(i.e. enable model selector).
1****** HSPICE -- F-2011.09-SP2 64-BIT (Feb 27 2012) linux ******               
 ******  
 $this uut was automatically generated by:

  ******  circuit name directory
 circuit number to circuit name directory
   number circuitname                     definition         multiplier
        0 main circuit
        1 xinput_0.                       inverter           1.00 
        2 xinput_1.                       inverter           1.00 
        3 xinverter00.                    inverter           1.00 
        4 xinverter10.                    inverter           1.00 
        5 xinverter01.                    inverter           1.00 
        6 xinverter11.                    inverter           1.00 
        7 xoutput_00.                     inverter           1.00 
        8 xoutput_10.                     inverter           1.00 
        9 xinput_0.xpfet.                 pfet               1.00 
       10 xinput_0.xnfet.                 nfet               1.00 
       11 xinput_1.xpfet.                 pfet               1.00 
       12 xinput_1.xnfet.                 nfet               1.00 
       13 xinverter00.xpfet.              pfet               1.00 
       14 xinverter00.xnfet.              nfet               1.00 
       15 xinverter10.xpfet.              pfet               1.00 
       16 xinverter10.xnfet.              nfet               1.00 
       17 xinverter01.xpfet.              pfet               1.00 
       18 xinverter01.xnfet.              nfet               1.00 
       19 xinverter11.xpfet.              pfet               1.00 
       20 xinverter11.xnfet.              nfet               1.00 
       21 xoutput_00.xpfet.               pfet               1.00 
       22 xoutput_00.xnfet.               nfet               1.00 
       23 xoutput_10.xpfet.               pfet               1.00 
       24 xoutput_10.xnfet.               nfet               1.00 
1****** HSPICE -- F-2011.09-SP2 64-BIT (Feb 27 2012) linux ******               
 ******  
 $this uut was automatically generated by:

  ******  mos   model parameters tnom=  25.000 temp=  25.000 *****
 Model Name: pfet 
 BSIM-MG BULK Model(Level72)
   VERSION = 105.03  
   DEVTYPE = -1 
   BULKMOD = 1  
   COREMOD = 0 
   GEOMOD = 1 
   RDSMOD = 1 
   IGCMOD = 1 
   IGBMOD = 1 
   GIDLMOD = 0 
   IIMOD = 0 
   NQSMOD = 0 
   SHMOD = 0 
   RGATEMOD = 0 
   RGEOMOD = 1 
   CGEOMOD = 2 
   CAPMOD = 0 
   LINT = 1.5e-09 m
   LL =      0 m^(LLN+1)
   LLN =      1 
   DLC =      0 m
   DLBIN =      0 
   LLC =      0 m^(LLN+1)
   EOT = 7.5e-10 m
   TOXP = 1.3e-09 m
   EOTBOX = 1.4e-07 m
   HFIN = 2.3e-08 m
   FECH =      1 
   DELTAW =      0 m
   FECHCV =      1 
   DELTAWCV =      0 m
   NBODY =  5e+22 m^-3
   NSD =  3e+26 m^-3
   PHIG =  4.752 eV
   EPSROX =    3.9 
   EPSRSUB =   11.9 
   EASUB =   4.05 eV
   NI0SUB = 1.1e+16 m^-3
   BG0SUB =   1.12 eV
   NC0SUB = 2.86e+25 m^-3
   NGATE =      0 m^-3
   CIT = 1.3e-05 F/m^2
   CDSC = 0.0226 F/m^2
   CDSCD =  0.007 F/m^2
   CDSCDR =  0.007 
   DVT0 =   0.01 
   DVT1 =   0.69 
   PHIN =   0.05 V
   ETA0 =  0.767 
   ETA0R =  0.767 
   DSUB =    0.9 
   K1RSCE =      0 V^1/2
   LPE0 =  5e-09 m
   DVTSHIFT =      0 
   QMFACTOR =      0 
   QMTCENIV =      0 
   QMTCENCV =      0 
   AQMTCEN =      0 
   BQMTCEN = 1.2e-08 
   ETAQM =   0.54 
   QM0 = 0.001143 
   PQM =   0.66 
   QM0ACC =  0.001 
   PQMACC =   0.66 
   VSAT = 1.05e+05 
   AVSAT =      0 
   BVSAT =  1e-07 
   VSAT1 = 1.05e+05 
   AVSAT1 =      0 
   BVSAT1 =  1e-07 
   DELTAVSAT =      1 
   KSATIV =    0.8 
   MEXP =      3 
   AMEXP =      0 
   BMEXP =      1 
   PTWG =      0 
   APTWG =      0 
   BPTWG =  1e-07 
   AT = -0.00156 
   TMEXP =      0 
   PTWGT =  0.004 
   U0 = 0.0336 
   ETAMOB =      2 
   UP =      0 
   LPA =      1 
   UA =    0.3 
   AUA =      0 
   BUA =  1e-07 
   EU =    1.8 
   AEU =      0 
   BEU =  1e-07 
   UD =      0 
   AUD =      0 
   BUD =  5e-08 
   UCS =      0 
   UTE =      0 
   UTL = -0.0015 
   UA1 = 0.001032 
   UD1 =      0 
   UCSTE = -0.00478 
   RDSWMIN =      0 
   RDSW =    100 
   ARDSW =      0 
   BRDSW =  1e-07 
   RSWMIN =      0 
   RSW =      0 
   ARSW =      0 
   BRSW =  1e-07 
   RDWMIN =      0 
   RDW =      0 
   ARDW =      0 
   BRDW =  1e-07 
   PRWG =      0 
   WR =      1 
   PRT =  0.001 
   PDIBL1 =    1.3 
   PDIBL2 = 0.0002 
   DROUT =   1.06 
   PVAG =      1 
   PCLM =    0.2 
   APCLM =      0 
   BPCLM =  1e-07 
   PCLMG =      0 
   VASAT =    0.6 
   PCLMCV =  0.013 
   PCLMGCV =      0 
   VASATCV =    0.2 
   RGEXT =      0 ohm
   RGFIN =  0.001 ohm
   RSHS =      0 ohm
   RSHD =      0 ohm
   HEPI =  9e-09 m
   TSILI =  8e-09 m
   RHOC =  9e-13 ohm/m^2
   RHORSD =      1 ohm/m
   RHOEXT =      1 ohm/m
   CRATIO =    0.5 
   DELTAPRSD =      0 m
   SDTERM = 0 
   LSP = 3.6e-09 m
   LDG = 2.5e-09 m
   EPSRSP =    3.9 
   TGATE = 8.5e-09 m
   TMASK =      0 m
   ASILIEND =      0 m^2
   ARSDEND =      0 m^2
   PRSDEND =      0 m
   NSDE =  6e+25 m^-3
   RGEOA =      1 
   RGEOB =      0 m^-1
   RGEOC =      0 m^-1
   RGEOD =      0 m^-1
   RGEOE =      0 m^-1
   CGEOA =      1 
   CGEOB =      0 m^-1
   CGEOC =      0 m^-1
   CGEOD =      0 m^-1
   CGEOE =      1 
   AIGBINV = 0.0111 (Fs^2/g)^0.5m^-1
   BIGBINV =   0.03 (Fs^2/g)^0.5m^-1
   CIGBINV =  0.006 V^-1
   EIGBINV =    1.1 V
   NIGBINV =    1.2 
   AIGBACC = 0.0149 
   BIGBACC = 0.000949 
   CIGBACC =  0.075 
   NIGBACC =      3 
   AIGC = 0.0136 (Fs^2/g)^0.5m^-1
   BIGC = 0.00171 (Fs^2/g)^0.5m^-1V^-1
   CIGC =  0.075 V^-1
   NIGC =      1 
   DLCIGS =      0 m
   AIGS = 0.0136 (Fs^2/g)^0.5m^-1
   BIGS = 0.00171 (Fs^2/g)^0.5m^-1V^-1
   CIGS =  0.075 V^-1
   DLCIGD =      0 m
   AIGD = 0.0136 (Fs^2/g)^0.5m^-1
   BIGD = 0.00171 (Fs^2/g)^0.5m^-1V^-1
   CIGD =  0.075 V^-1
   POXEDGE =      1 
   AGIDL = 5.729e-12 ohm^-1
   BGIDL =  3e+08 V/m
   EGIDL =    0.1 V
   AGISL = 5.729e-12 ohm^-1
   BGISL =  3e+08 V/m
   EGISL =    0.1 V
   ALPHA0 =      0 mV^-1
   ALPHA1 =      0 V^-1
   BETA0 =     30 V^-1
   ALPHAII =      0 
   BETAII0 =      0 V^-1
   BETAII1 =      0 
   BETAII2 =    0.1 V
   ESATII =  1e+07 V/m
   LII =  5e-10 V/m
   SII0 =    0.5 V^-1
   SII1 =    0.1 
   SII2 =      0 V
   SIID =      0 V
   EOTACC = 7.5e-10 m
   DELVFBACC =      0 V
   CFS = 2.56e-11 F/m
   CFD = 2.65e-11 F/m
   COVS = 2.5e-11 F/m
   COVD = 2.5e-11 F/m
   CGSO =      0 F/m
   CGDO =      0 F/m
   CGSL =      0 F/m
   CGDL =      0 F/m
   CKAPPAS =    0.6 V
   CKAPPAD =    0.6 V
   CGBO =      0 F/m
   CGBL =      0 F/m
   CKAPPAB =    0.6 V
   CSDESW =      0 F/m
   CJS = 0.0005 F/m^2
   CJD = 0.0005 F/m^2
   CJSWS =  5e-10 F/m
   CJSWD =  5e-10 F/m
   CJSWGS =      0 F/m
   CJSWGD =      0 F/m
   PBS =      1 V
   PBD =      1 V
   PBSWS =      1 V
   PBSWD =      1 V
   PBSWGS =      1 V
   PBSWGD =      1 V
   MJS, =    0.5 
   MJD =    0.5 
   MJSWS =   0.33 
   MJSWD =   0.33 
   MJSWGS =   0.33 
   MJSWGD =   0.33 
   SJS =      0 
   SJD =      0 
   SJSWS =      0 
   SJSWD =      0 
   SJSWGS =      0 
   SJSWGD =      0 
   MJS2 =  0.125 
   MJD2 =  0.125 
   MJSWS2 =   0.33 
   MJSWD2 =   0.33 
   MJSWGS2 =   0.33 
   MJSWGD2 =   0.33 
   JSS = 0.0001 A/m^2
   JSD = 0.0001 A/m^2
   JSWS =      0 A/m
   JSWD =      0 A/m
   JSWGS =      0 A/m
   JSWGD =      0 A/m
   NJS =      1 
   NJD =      1 
   IJTHSFWD =    0.1 A
   IJTHDFWD =    0.1 A
   IJTHSREV =    0.1 A
   IJTHDREV =    0.1 A
   BVS =     10 V
   BVD =     10 V
   XJBVS =      1 
   XJBVD =      1 
   JTSS =      0 A/m^2
   JTSD =      0 A/m^2
   JTSSWS =      0 A/m
   JTSSWD =      0 A/m
   JTSSWGS =      0 A/m
   JTSSWGD =      0 A/m
   JTWEFF =      0 m
   NJTS =     20 
   NJTSD =     20 
   NJTSSW =     20 
   NJTSSWD =     20 
   NJTSSWG =     20 
   NJTSSWGD =     20 
   VTSS =     10 V
   VTSD =     10 V
   VTSSWS =     10 V
   VTSSWD =     10 V
   VTSSWGS =     10 V
   VTSSWGD =     10 V
   LINTIGEN =      0 m
   NTGEN =      1 
   AIGEN =      0 m^-3V^-1
   BIGEN =      0 m^-3V^-3
   XRCRG1 =     12 
   XRCRG2 =      1 
   NSEG = 5 
   EF =      1 
   EM = 4.1e+07 V/m
   NOIA = 6.25e+39 eV^-1s^1-EFm^-3
   NOIB = 3.125e+24 eV^-1s^1-EFm^-1
   NOIC = 8.75e+07 eV^-1s^1-EFm
   NTNOI =      1 
   TNOM =  300.1 K
   TBGASUB = 0.000702 eV/K
   TBGBSUB =   1108 K
   KT1 =      0 V
   KT1L =      0 Vm
   IIT =   -0.5 
   TII =      0 
   TGIDL = -0.0003 K^-1
   IGT =    2.5 
   TCJ =      0 K^-1
   TCJSW =      0 K^-1
   TCJSWG =      0 K^-1
   TPB =      0 K^-1
   TPBSW =      0 K^-1
   TPBSWG =      0 K^-1
   XTIS =      3 
   XTID =      3 
   XTSS =   0.02 
   XTSD =   0.02 
   XTSSWS =   0.02 
   XTSSWD =   0.02 
   XTSSWGS =   0.02 
   XTSSWGD =   0.02 
   TNJTS =      0 
   TNJTSD =      0 
   TNJTSSW =      0 
   TNJTSSWD =      0 
   TNJTSSWG =      0 
   TNJTSSWGD =      0 
   RTH0 =   0.01 ohm
   CTH0 =  1e-05 F
   WTH0 =      0 m
   LNBODY =      0 
   NNBODY =      0 
   PNBODY =      0 
   LPHIG =      0 
   NPHIG =      0 
   PPHIG =      0 
   LNGATE =      0 
   NNGATE =      0 
   PNGATE =      0 
   LCIT =      0 
   NCIT =      0 
   PCIT =      0 
   LCDSC =      0 
   NCDSC =      0 
   PCDSC =      0 
   LCDSCD =      0 
   NCDSCD =      0 
   PCDSCD =      0 
   LCDSCDR =      0 
   NCDSCDR =      0 
   PCDSCDR =      0 
   LDVT0 =      0 
   NDVT0 =      0 
   PDVT0 =      0 
   LDVT1 =      0 
   NDVT1 =      0 
   PDVT1 =      0 
   LPHIN =      0 
   NPHIN =      0 
   PPHIN =      0 
   LETA0 =      0 
   NETA0 =      0 
   PETA0 =      0 
   LETA0R =      0 
   NETA0R =      0 
   PETA0R =      0 
   LDSUB =      0 
   NDSUB =      0 
   PDSUB =      0 
   LK1RSCE =      0 
   NK1RSCE =      0 
   PK1RSCE =      0 
   LLPE0 =      0 
   NLPE0 =      0 
   PLPE0 =      0 
   LQMFACTOR =      0 
   NQMFACTOR =      0 
   PQMFACTOR =      0 
   LQMTCENIV =      0 
   NQMTCENIV =      0 
   PQMTCENIV =      0 
   LQMTCENCV =      0 
   NQMTCENCV =      0 
   PQMTCENCV =      0 
   LVSAT =      0 
   NVSAT =      0 
   PVSAT =      0 
   LKSATIV =      0 
   NKSATIV =      0 
   PKSATIV =      0 
   LMEXP =      0 
   NMEXP =      0 
   PMEXP =      0 
   LPTWG =      0 
   NPTWG =      0 
   PPTWG =      0 
   LTHETASAT =      0 
   NTHETASAT =      0 
   PTHETASAT =      0 
   LU0 =      0 
   NU0 =      0 
   PU0 =      0 
   LUP =      0 
   NUP =      0 
   PUP =      0 
   LUA =      0 
   NUA =      0 
   PUA =      0 
   LEU =      0 
   NEU =      0 
   PEU =      0 
   LUD =      0 
   NUD =      0 
   PUD =      0 
   LUCS =      0 
   NUCS =      0 
   PUCS =      0 
   LPCLM =      0 
   NPCLM =      0 
   PPCLM =      0 
   LPCLMCV =      0 
   NPCLMCV =      0 
   PPCLMCV =      0 
   LRDSW =      0 
   NRDSW =      0 
   PRDSW =      0 
   LRSW =      0 
   NRSW =      0 
   PRSW =      0 
   LRDW =      0 
   NRDW =      0 
   PRDW =      0 
   LPRWG =      0 
   NPRWG =      0 
   PPRWG =      0 
   LWR =      0 
   NWR =      0 
   PWR =      0 
   LPDIBL1 =      0 
   NPDIBL1 =      0 
   PPDIBL1 =      0 
   LPDIBL2 =      0 
   NPDIBL2 =      0 
   PPDIBL2 =      0 
   LDROUT =      0 
   NDROUT =      0 
   PDROUT =      0 
   LPVAG =      0 
   NPVAG =      0 
   PPVAG =      0 
   LAIGBINV =      0 
   NAIGBINV =      0 
   PAIGBINV =      0 
   LBIGBINV =      0 
   NBIGBINV =      0 
   PBIGBINV =      0 
   LCIGBINV =      0 
   NCIGBINV =      0 
   PCIGBINV =      0 
   LEIGBINV =      0 
   NEIGBINV =      0 
   PEIGBINV =      0 
   LNIGBINV =      0 
   NNIGBINV =      0 
   PNIGBINV =      0 
   LAIGC =      0 
   NAIGC =      0 
   PAIGC =      0 
   LBIGC =      0 
   NBIGC =      0 
   PBIGC =      0 
   LCIGC =      0 
   NCIGC =      0 
   PCIGC =      0 
   LNIGC =      0 
   NNIGC =      0 
   PNIGC =      0 
   LAIGS =      0 
   NAIGS =      0 
   PAIGS =      0 
   LBIGS =      0 
   NBIGS =      0 
   PBIGS =      0 
   LCIGS =      0 
   NCIGS =      0 
   PCIGS =      0 
   LAIGD =      0 
   NAIGD =      0 
   PAIGD =      0 
   LBIGD =      0 
   NBIGD =      0 
   PBIGD =      0 
   LCIGD =      0 
   NCIGD =      0 
   PCIGD =      0 
   LPOXEDGE =      0 
   NPOXEDGE =      0 
   PPOXEDGE =      0 
   LAGIDL =      0 
   NAGIDL =      0 
   PAGIDL =      0 
   LBGIDL =      0 
   NBGIDL =      0 
   PBGIDL =      0 
   LEGIDL =      0 
   NEGIDL =      0 
   PEGIDL =      0 
   LAGISL =      0 
   NAGISL =      0 
   PAGISL =      0 
   LBGISL =      0 
   NBGISL =      0 
   PBGISL =      0 
   LEGISL =      0 
   NEGISL =      0 
   PEGISL =      0 
   LALPHA0 =      0 
   NALPHA0 =      0 
   PALPHA0 =      0 
   LALPHA1 =      0 
   NALPHA1 =      0 
   PALPHA1 =      0 
   LBETA0 =      0 
   NBETA0 =      0 
   PBETA0 =      0 
   LALPHAII =      0 
   NALPHAII =      0 
   PALPHAII =      0 
   LBETAII0 =      0 
   NBETAII0 =      0 
   PBETAII0 =      0 
   LBETAII1 =      0 
   NBETAII1 =      0 
   PBETAII1 =      0 
   LBETAII2 =      0 
   NBETAII2 =      0 
   PBETAII2 =      0 
   LESATII =      0 
   NESATII =      0 
   PESATII =      0 
   LLII =      0 
   NLII =      0 
   PLII =      0 
   LSII0 =      0 
   NSII0 =      0 
   PSII0 =      0 
   LSII1 =      0 
   NSII1 =      0 
   PSII1 =      0 
   LSII2 =      0 
   NSII2 =      0 
   PSII2 =      0 
   LSIID =      0 
   NSIID =      0 
   PSIID =      0 
   LCFS =      0 
   NCFS =      0 
   PCFS =      0 
   LCFD =      0 
   NCFD =      0 
   PCFD =      0 
   LCOVS =      0 
   NCOVS =      0 
   PCOVS =      0 
   LCOVD =      0 
   NCOVD =      0 
   PCOVD =      0 
   LCGSL =      0 
   NCGSL =      0 
   PCGSL =      0 
   LCGDL =      0 
   NCGDL =      0 
   PCGDL =      0 
   LCKAPPAS =      0 
   NCKAPPAS =      0 
   PCKAPPAS =      0 
   LCKAPPAD =      0 
   NCKAPPAD =      0 
   PCKAPPAD =      0 
   LCGBL =      0 
   NCGBL =      0 
   PCGBL =      0 
   LCKAPPAB =      0 
   NCKAPPAB =      0 
   PCKAPPAB =      0 
   LNTGEN =      0 
   NNTGEN =      0 
   PNTGEN =      0 
   LAIGEN =      0 
   NAIGEN =      0 
   PAIGEN =      0 
   LBIGEN =      0 
   NBIGEN =      0 
   PBIGEN =      0 
   LXRCRG1 =      0 
   NXRCRG1 =      0 
   PXRCRG1 =      0 
   LXRCRG2 =      0 
   NXRCRG2 =      0 
   PXRCRG2 =      0 
   LINTNOI =      0 
   NINTNOI =      0 
   PINTNOI =      0 
   LUTE =      0 
   NUTE =      0 
   PUTE =      0 
   LUTL =      0 
   NUTL =      0 
   PUTL =      0 
   LUA1 =      0 
   NUA1 =      0 
   PUA1 =      0 
   LUD1 =      0 
   NUD1 =      0 
   PUD1 =      0 
   LUCSTE =      0 
   NUCSTE =      0 
   PUCSTE =      0 
   LPTWGT =      0 
   NPTWGT =      0 
   PPTWGT =      0 
   LAT =      0 
   NAT =      0 
   PAT =      0 
   LSTTHETASAT =      0 
   NSTTHETASAT =      0 
   PSTTHETASAT =      0 
   LPRT =      0 
   NPRT =      0 
   PPRT =      0 
   LIIT =      0 
   NIIT =      0 
   PIIT =      0 
   LTII =      0 
   NTII =      0 
   PTII =      0 
   LTGIDL =      0 
   NTGIDL =      0 
   PTGIDL =      0 
   LIGT =      0 
   NIGT =      0 
   PIGT =      0 
   L = 1.8e-08 m
   D =  4e-08 m
   TFIN =  1e-08 m
   FPITCH = 3.2e-08 m
   NF = 1 
   NFIN = 1 
   NGCON = 1 
   ASEO =      0 m^2
   ADEO =      0 m^2
   PSEO =      0 m
   PDEO =      0 m
   ASEJ =      0 m^2
   ADEJ =      0 m^2
   PSEJ =      0 m
   PDEJ =      0 m
   CGSP =      0 F
   CGDP =      0 F
   CDSP =      0 F
   NRS =      0 
   NRD =      0 
   LRSD = 1.8e-08 m
   XL =      0 m
   DELVTRAND =      0 
   U0MULT =      1 
   IDS0MULT =      1 
   Lmin =  1e-08 m
   Lmax =  3e-08 m
   NFINmin = 0 
   NFINmax = 1 
   LVSAT1 =      0 
   NVSAT1 =      0 
   PVSAT1 =      0 
   LETAMOB =      0 
   NETAMOB =      0 
   PETAMOB =      0 
   LPCLMG =      0 
   NPCLMG =      0 
   PPCLMG =      0 
   LVASAT =      0 
   NVASAT =      0 
   PVASAT =      0 
   LAIGBACC =      0 
   NAIGBACC =      0 
   PAIGBACC =      0 
   LBIGBACC =      0 
   NBIGBACC =      0 
   PBIGBACC =      0 
   LCIGBACC =      0 
   NCIGBACC =      0 
   PCIGBACC =      0 
   LNIGBACC =      0 
   NNIGBACC =      0 
   PNIGBACC =      0 
 Model Name: nfet 
 BSIM-MG BULK Model(Level72)
   VERSION = 105.03  
   DEVTYPE = 1 
   BULKMOD = 1  
   COREMOD = 0 
   GEOMOD = 1 
   RDSMOD = 1 
   IGCMOD = 1 
   IGBMOD = 1 
   GIDLMOD = 0 
   IIMOD = 0 
   NQSMOD = 0 
   SHMOD = 0 
   RGATEMOD = 0 
   RGEOMOD = 1 
   CGEOMOD = 2 
   CAPMOD = 0 
   LINT = 1.5e-09 m
   LL =      0 m^(LLN+1)
   LLN =      1 
   DLC =      0 m
   DLBIN =      0 
   LLC =      0 m^(LLN+1)
   EOT = 7.5e-10 m
   TOXP = 1.3e-09 m
   EOTBOX = 1.4e-07 m
   HFIN = 2.3e-08 m
   FECH =      1 
   DELTAW =      0 m
   FECHCV =      1 
   DELTAWCV =      0 m
   NBODY =  5e+22 m^-3
   NSD =  3e+26 m^-3
   PHIG =  4.419 eV
   EPSROX =    3.9 
   EPSRSUB =   11.9 
   EASUB =   4.05 eV
   NI0SUB = 1.1e+16 m^-3
   BG0SUB =   1.12 eV
   NC0SUB = 2.86e+25 m^-3
   NGATE =      0 m^-3
   CIT = 1.3e-05 F/m^2
   CDSC = 0.0226 F/m^2
   CDSCD =  0.007 F/m^2
   CDSCDR =  0.007 
   DVT0 =   0.01 
   DVT1 =   0.69 
   PHIN =   0.05 V
   ETA0 = 0.5063 
   ETA0R = 0.5063 
   DSUB =    0.9 
   K1RSCE =      0 V^1/2
   LPE0 =  5e-09 m
   DVTSHIFT =      0 
   QMFACTOR =      0 
   QMTCENIV =      0 
   QMTCENCV =      0 
   AQMTCEN =      0 
   BQMTCEN = 1.2e-08 
   ETAQM =   0.54 
   QM0 = 0.001143 
   PQM =   0.66 
   QM0ACC =  0.001 
   PQMACC =   0.66 
   VSAT = 1.1e+05 
   AVSAT =      0 
   BVSAT =  1e-07 
   VSAT1 = 1.1e+05 
   AVSAT1 =      0 
   BVSAT1 =  1e-07 
   DELTAVSAT =      1 
   KSATIV =    0.8 
   MEXP =      3 
   AMEXP =      0 
   BMEXP =      1 
   PTWG =      0 
   APTWG =      0 
   BPTWG =  1e-07 
   AT = -0.00156 
   TMEXP =      0 
   PTWGT =  0.004 
   U0 =  0.052 
   ETAMOB =      2 
   UP =      0 
   LPA =      1 
   UA =    0.3 
   AUA =      0 
   BUA =  1e-07 
   EU =    1.8 
   AEU =      0 
   BEU =  1e-07 
   UD =      0 
   AUD =      0 
   BUD =  5e-08 
   UCS =      0 
   UTE =      0 
   UTL = -0.0015 
   UA1 = 0.001032 
   UD1 =      0 
   UCSTE = -0.00478 
   RDSWMIN =      0 
   RDSW =    100 
   ARDSW =      0 
   BRDSW =  1e-07 
   RSWMIN =      0 
   RSW =      0 
   ARSW =      0 
   BRSW =  1e-07 
   RDWMIN =      0 
   RDW =      0 
   ARDW =      0 
   BRDW =  1e-07 
   PRWG =      0 
   WR =      1 
   PRT =  0.001 
   PDIBL1 =    1.3 
   PDIBL2 = 0.0002 
   DROUT =   1.06 
   PVAG =      1 
   PCLM =    0.2 
   APCLM =      0 
   BPCLM =  1e-07 
   PCLMG =      0 
   VASAT =    0.6 
   PCLMCV =  0.013 
   PCLMGCV =      0 
   VASATCV =    0.2 
   RGEXT =      0 ohm
   RGFIN =  0.001 ohm
   RSHS =      0 ohm
   RSHD =      0 ohm
   HEPI =  9e-09 m
   TSILI =  8e-09 m
   RHOC =  8e-13 ohm/m^2
   RHORSD =      1 ohm/m
   RHOEXT =      1 ohm/m
   CRATIO =    0.5 
   DELTAPRSD =      0 m
   SDTERM = 0 
   LSP = 3.6e-09 m
   LDG = 2.5e-09 m
   EPSRSP =    3.9 
   TGATE = 8.5e-09 m
   TMASK =      0 m
   ASILIEND =      0 m^2
   ARSDEND =      0 m^2
   PRSDEND =      0 m
   NSDE =  6e+25 m^-3
   RGEOA =      1 
   RGEOB =      0 m^-1
   RGEOC =      0 m^-1
   RGEOD =      0 m^-1
   RGEOE =      0 m^-1
   CGEOA =      1 
   CGEOB =      0 m^-1
   CGEOC =      0 m^-1
   CGEOD =      0 m^-1
   CGEOE =      1 
   AIGBINV = 0.0111 (Fs^2/g)^0.5m^-1
   BIGBINV =   0.03 (Fs^2/g)^0.5m^-1
   CIGBINV =  0.006 V^-1
   EIGBINV =    1.1 V
   NIGBINV =    1.2 
   AIGBACC = 0.0149 
   BIGBACC = 0.000949 
   CIGBACC =  0.075 
   NIGBACC =      3 
   AIGC = 0.0136 (Fs^2/g)^0.5m^-1
   BIGC = 0.00171 (Fs^2/g)^0.5m^-1V^-1
   CIGC =  0.075 V^-1
   NIGC =      1 
   DLCIGS =      0 m
   AIGS = 0.0136 (Fs^2/g)^0.5m^-1
   BIGS = 0.00171 (Fs^2/g)^0.5m^-1V^-1
   CIGS =  0.075 V^-1
   DLCIGD =      0 m
   AIGD = 0.0136 (Fs^2/g)^0.5m^-1
   BIGD = 0.00171 (Fs^2/g)^0.5m^-1V^-1
   CIGD =  0.075 V^-1
   POXEDGE =      1 
   AGIDL = 5.729e-12 ohm^-1
   BGIDL =  3e+08 V/m
   EGIDL =    0.1 V
   AGISL = 5.729e-12 ohm^-1
   BGISL =  3e+08 V/m
   EGISL =    0.1 V
   ALPHA0 =      0 mV^-1
   ALPHA1 =      0 V^-1
   BETA0 =     30 V^-1
   ALPHAII =      0 
   BETAII0 =      0 V^-1
   BETAII1 =      0 
   BETAII2 =    0.1 V
   ESATII =  1e+07 V/m
   LII =  5e-10 V/m
   SII0 =    0.5 V^-1
   SII1 =    0.1 
   SII2 =      0 V
   SIID =      0 V
   EOTACC = 7.5e-10 m
   DELVFBACC =      0 V
   CFS = 2.56e-11 F/m
   CFD = 2.65e-11 F/m
   COVS = 2.5e-11 F/m
   COVD = 2.5e-11 F/m
   CGSO =      0 F/m
   CGDO =      0 F/m
   CGSL =      0 F/m
   CGDL =      0 F/m
   CKAPPAS =    0.6 V
   CKAPPAD =    0.6 V
   CGBO =      0 F/m
   CGBL =      0 F/m
   CKAPPAB =    0.6 V
   CSDESW =      0 F/m
   CJS = 0.0005 F/m^2
   CJD = 0.0005 F/m^2
   CJSWS =  5e-10 F/m
   CJSWD =  5e-10 F/m
   CJSWGS =      0 F/m
   CJSWGD =      0 F/m
   PBS =      1 V
   PBD =      1 V
   PBSWS =      1 V
   PBSWD =      1 V
   PBSWGS =      1 V
   PBSWGD =      1 V
   MJS, =    0.5 
   MJD =    0.5 
   MJSWS =   0.33 
   MJSWD =   0.33 
   MJSWGS =   0.33 
   MJSWGD =   0.33 
   SJS =      0 
   SJD =      0 
   SJSWS =      0 
   SJSWD =      0 
   SJSWGS =      0 
   SJSWGD =      0 
   MJS2 =  0.125 
   MJD2 =  0.125 
   MJSWS2 =   0.33 
   MJSWD2 =   0.33 
   MJSWGS2 =   0.33 
   MJSWGD2 =   0.33 
   JSS = 0.0001 A/m^2
   JSD = 0.0001 A/m^2
   JSWS =      0 A/m
   JSWD =      0 A/m
   JSWGS =      0 A/m
   JSWGD =      0 A/m
   NJS =      1 
   NJD =      1 
   IJTHSFWD =    0.1 A
   IJTHDFWD =    0.1 A
   IJTHSREV =    0.1 A
   IJTHDREV =    0.1 A
   BVS =     10 V
   BVD =     10 V
   XJBVS =      1 
   XJBVD =      1 
   JTSS =      0 A/m^2
   JTSD =      0 A/m^2
   JTSSWS =      0 A/m
   JTSSWD =      0 A/m
   JTSSWGS =      0 A/m
   JTSSWGD =      0 A/m
   JTWEFF =      0 m
   NJTS =     20 
   NJTSD =     20 
   NJTSSW =     20 
   NJTSSWD =     20 
   NJTSSWG =     20 
   NJTSSWGD =     20 
   VTSS =     10 V
   VTSD =     10 V
   VTSSWS =     10 V
   VTSSWD =     10 V
   VTSSWGS =     10 V
   VTSSWGD =     10 V
   LINTIGEN =      0 m
   NTGEN =      1 
   AIGEN =      0 m^-3V^-1
   BIGEN =      0 m^-3V^-3
   XRCRG1 =     12 
   XRCRG2 =      1 
   NSEG = 5 
   EF =      1 
   EM = 4.1e+07 V/m
   NOIA = 6.25e+39 eV^-1s^1-EFm^-3
   NOIB = 3.125e+24 eV^-1s^1-EFm^-1
   NOIC = 8.75e+07 eV^-1s^1-EFm
   NTNOI =      1 
   TNOM =  300.1 K
   TBGASUB = 0.000702 eV/K
   TBGBSUB =   1108 K
   KT1 =      0 V
   KT1L =      0 Vm
   IIT =   -0.5 
   TII =      0 
   TGIDL = -0.0003 K^-1
   IGT =    2.5 
   TCJ =      0 K^-1
   TCJSW =      0 K^-1
   TCJSWG =      0 K^-1
   TPB =      0 K^-1
   TPBSW =      0 K^-1
   TPBSWG =      0 K^-1
   XTIS =      3 
   XTID =      3 
   XTSS =   0.02 
   XTSD =   0.02 
   XTSSWS =   0.02 
   XTSSWD =   0.02 
   XTSSWGS =   0.02 
   XTSSWGD =   0.02 
   TNJTS =      0 
   TNJTSD =      0 
   TNJTSSW =      0 
   TNJTSSWD =      0 
   TNJTSSWG =      0 
   TNJTSSWGD =      0 
   RTH0 =   0.01 ohm
   CTH0 =  1e-05 F
   WTH0 =      0 m
   LNBODY =      0 
   NNBODY =      0 
   PNBODY =      0 
   LPHIG =      0 
   NPHIG =      0 
   PPHIG =      0 
   LNGATE =      0 
   NNGATE =      0 
   PNGATE =      0 
   LCIT =      0 
   NCIT =      0 
   PCIT =      0 
   LCDSC =      0 
   NCDSC =      0 
   PCDSC =      0 
   LCDSCD =      0 
   NCDSCD =      0 
   PCDSCD =      0 
   LCDSCDR =      0 
   NCDSCDR =      0 
   PCDSCDR =      0 
   LDVT0 =      0 
   NDVT0 =      0 
   PDVT0 =      0 
   LDVT1 =      0 
   NDVT1 =      0 
   PDVT1 =      0 
   LPHIN =      0 
   NPHIN =      0 
   PPHIN =      0 
   LETA0 =      0 
   NETA0 =      0 
   PETA0 =      0 
   LETA0R =      0 
   NETA0R =      0 
   PETA0R =      0 
   LDSUB =      0 
   NDSUB =      0 
   PDSUB =      0 
   LK1RSCE =      0 
   NK1RSCE =      0 
   PK1RSCE =      0 
   LLPE0 =      0 
   NLPE0 =      0 
   PLPE0 =      0 
   LQMFACTOR =      0 
   NQMFACTOR =      0 
   PQMFACTOR =      0 
   LQMTCENIV =      0 
   NQMTCENIV =      0 
   PQMTCENIV =      0 
   LQMTCENCV =      0 
   NQMTCENCV =      0 
   PQMTCENCV =      0 
   LVSAT =      0 
   NVSAT =      0 
   PVSAT =      0 
   LKSATIV =      0 
   NKSATIV =      0 
   PKSATIV =      0 
   LMEXP =      0 
   NMEXP =      0 
   PMEXP =      0 
   LPTWG =      0 
   NPTWG =      0 
   PPTWG =      0 
   LTHETASAT =      0 
   NTHETASAT =      0 
   PTHETASAT =      0 
   LU0 =      0 
   NU0 =      0 
   PU0 =      0 
   LUP =      0 
   NUP =      0 
   PUP =      0 
   LUA =      0 
   NUA =      0 
   PUA =      0 
   LEU =      0 
   NEU =      0 
   PEU =      0 
   LUD =      0 
   NUD =      0 
   PUD =      0 
   LUCS =      0 
   NUCS =      0 
   PUCS =      0 
   LPCLM =      0 
   NPCLM =      0 
   PPCLM =      0 
   LPCLMCV =      0 
   NPCLMCV =      0 
   PPCLMCV =      0 
   LRDSW =      0 
   NRDSW =      0 
   PRDSW =      0 
   LRSW =      0 
   NRSW =      0 
   PRSW =      0 
   LRDW =      0 
   NRDW =      0 
   PRDW =      0 
   LPRWG =      0 
   NPRWG =      0 
   PPRWG =      0 
   LWR =      0 
   NWR =      0 
   PWR =      0 
   LPDIBL1 =      0 
   NPDIBL1 =      0 
   PPDIBL1 =      0 
   LPDIBL2 =      0 
   NPDIBL2 =      0 
   PPDIBL2 =      0 
   LDROUT =      0 
   NDROUT =      0 
   PDROUT =      0 
   LPVAG =      0 
   NPVAG =      0 
   PPVAG =      0 
   LAIGBINV =      0 
   NAIGBINV =      0 
   PAIGBINV =      0 
   LBIGBINV =      0 
   NBIGBINV =      0 
   PBIGBINV =      0 
   LCIGBINV =      0 
   NCIGBINV =      0 
   PCIGBINV =      0 
   LEIGBINV =      0 
   NEIGBINV =      0 
   PEIGBINV =      0 
   LNIGBINV =      0 
   NNIGBINV =      0 
   PNIGBINV =      0 
   LAIGC =      0 
   NAIGC =      0 
   PAIGC =      0 
   LBIGC =      0 
   NBIGC =      0 
   PBIGC =      0 
   LCIGC =      0 
   NCIGC =      0 
   PCIGC =      0 
   LNIGC =      0 
   NNIGC =      0 
   PNIGC =      0 
   LAIGS =      0 
   NAIGS =      0 
   PAIGS =      0 
   LBIGS =      0 
   NBIGS =      0 
   PBIGS =      0 
   LCIGS =      0 
   NCIGS =      0 
   PCIGS =      0 
   LAIGD =      0 
   NAIGD =      0 
   PAIGD =      0 
   LBIGD =      0 
   NBIGD =      0 
   PBIGD =      0 
   LCIGD =      0 
   NCIGD =      0 
   PCIGD =      0 
   LPOXEDGE =      0 
   NPOXEDGE =      0 
   PPOXEDGE =      0 
   LAGIDL =      0 
   NAGIDL =      0 
   PAGIDL =      0 
   LBGIDL =      0 
   NBGIDL =      0 
   PBGIDL =      0 
   LEGIDL =      0 
   NEGIDL =      0 
   PEGIDL =      0 
   LAGISL =      0 
   NAGISL =      0 
   PAGISL =      0 
   LBGISL =      0 
   NBGISL =      0 
   PBGISL =      0 
   LEGISL =      0 
   NEGISL =      0 
   PEGISL =      0 
   LALPHA0 =      0 
   NALPHA0 =      0 
   PALPHA0 =      0 
   LALPHA1 =      0 
   NALPHA1 =      0 
   PALPHA1 =      0 
   LBETA0 =      0 
   NBETA0 =      0 
   PBETA0 =      0 
   LALPHAII =      0 
   NALPHAII =      0 
   PALPHAII =      0 
   LBETAII0 =      0 
   NBETAII0 =      0 
   PBETAII0 =      0 
   LBETAII1 =      0 
   NBETAII1 =      0 
   PBETAII1 =      0 
   LBETAII2 =      0 
   NBETAII2 =      0 
   PBETAII2 =      0 
   LESATII =      0 
   NESATII =      0 
   PESATII =      0 
   LLII =      0 
   NLII =      0 
   PLII =      0 
   LSII0 =      0 
   NSII0 =      0 
   PSII0 =      0 
   LSII1 =      0 
   NSII1 =      0 
   PSII1 =      0 
   LSII2 =      0 
   NSII2 =      0 
   PSII2 =      0 
   LSIID =      0 
   NSIID =      0 
   PSIID =      0 
   LCFS =      0 
   NCFS =      0 
   PCFS =      0 
   LCFD =      0 
   NCFD =      0 
   PCFD =      0 
   LCOVS =      0 
   NCOVS =      0 
   PCOVS =      0 
   LCOVD =      0 
   NCOVD =      0 
   PCOVD =      0 
   LCGSL =      0 
   NCGSL =      0 
   PCGSL =      0 
   LCGDL =      0 
   NCGDL =      0 
   PCGDL =      0 
   LCKAPPAS =      0 
   NCKAPPAS =      0 
   PCKAPPAS =      0 
   LCKAPPAD =      0 
   NCKAPPAD =      0 
   PCKAPPAD =      0 
   LCGBL =      0 
   NCGBL =      0 
   PCGBL =      0 
   LCKAPPAB =      0 
   NCKAPPAB =      0 
   PCKAPPAB =      0 
   LNTGEN =      0 
   NNTGEN =      0 
   PNTGEN =      0 
   LAIGEN =      0 
   NAIGEN =      0 
   PAIGEN =      0 
   LBIGEN =      0 
   NBIGEN =      0 
   PBIGEN =      0 
   LXRCRG1 =      0 
   NXRCRG1 =      0 
   PXRCRG1 =      0 
   LXRCRG2 =      0 
   NXRCRG2 =      0 
   PXRCRG2 =      0 
   LINTNOI =      0 
   NINTNOI =      0 
   PINTNOI =      0 
   LUTE =      0 
   NUTE =      0 
   PUTE =      0 
   LUTL =      0 
   NUTL =      0 
   PUTL =      0 
   LUA1 =      0 
   NUA1 =      0 
   PUA1 =      0 
   LUD1 =      0 
   NUD1 =      0 
   PUD1 =      0 
   LUCSTE =      0 
   NUCSTE =      0 
   PUCSTE =      0 
   LPTWGT =      0 
   NPTWGT =      0 
   PPTWGT =      0 
   LAT =      0 
   NAT =      0 
   PAT =      0 
   LSTTHETASAT =      0 
   NSTTHETASAT =      0 
   PSTTHETASAT =      0 
   LPRT =      0 
   NPRT =      0 
   PPRT =      0 
   LIIT =      0 
   NIIT =      0 
   PIIT =      0 
   LTII =      0 
   NTII =      0 
   PTII =      0 
   LTGIDL =      0 
   NTGIDL =      0 
   PTGIDL =      0 
   LIGT =      0 
   NIGT =      0 
   PIGT =      0 
   L = 1.8e-08 m
   D =  4e-08 m
   TFIN =  1e-08 m
   FPITCH = 3.2e-08 m
   NF = 1 
   NFIN = 1 
   NGCON = 1 
   ASEO =      0 m^2
   ADEO =      0 m^2
   PSEO =      0 m
   PDEO =      0 m
   ASEJ =      0 m^2
   ADEJ =      0 m^2
   PSEJ =      0 m
   PDEJ =      0 m
   CGSP =      0 F
   CGDP =      0 F
   CDSP =      0 F
   NRS =      0 
   NRD =      0 
   LRSD = 1.8e-08 m
   XL =      0 m
   DELVTRAND =      0 
   U0MULT =      1 
   IDS0MULT =      1 
   Lmin =  1e-08 m
   Lmax =  3e-08 m
   NFINmin = 0 
   NFINmax = 1 
   LVSAT1 =      0 
   NVSAT1 =      0 
   PVSAT1 =      0 
   LETAMOB =      0 
   NETAMOB =      0 
   PETAMOB =      0 
   LPCLMG =      0 
   NPCLMG =      0 
   PPCLMG =      0 
   LVASAT =      0 
   NVASAT =      0 
   PVASAT =      0 
   LAIGBACC =      0 
   NAIGBACC =      0 
   PAIGBACC =      0 
   LBIGBACC =      0 
   NBIGBACC =      0 
   PBIGBACC =      0 
   LCIGBACC =      0 
   NCIGBACC =      0 
   PCIGBACC =      0 
   LNIGBACC =      0 
   NNIGBACC =      0 
   PNIGBACC =      0 
  **info** (ptm14hp.sp:8) DC voltage reset to initial transient source value              in source        0:vin_0               new dc=  0.8000D+00
  
 **warning**  No DC path to ground from node        0:outin_30         defined in subckt 0               ; Connected by HSPICE with gdcpath


      
 **info** set option symb=1 internally to help for convergence.
 *****************************************************************
 ******  option summary
 ******
 runlvl  = 3         bypass  = 2         
  Opening plot unit= 15
 file=ptm14hp.pa0                                                              

1****** HSPICE -- F-2011.09-SP2 64-BIT (Feb 27 2012) linux ******               
 ******  
 $this uut was automatically generated by:

  ******  operating point information tnom=  25.000 temp=  25.000 *****
 ***** operating point status is voltage   simulation time is     0.     
     node    =voltage       node    =voltage       node    =voltage

 + 0:inb_0   = 800.0000m  0:inb_1   = 800.0000m  0:outb_00 = 799.0248m
 + 0:outb_10 = 799.0248m  0:outin_00=   1.0221m  0:outin_01=   1.0221m
 + 0:outin_10= 799.1963m  0:outin_11= 799.1963m  0:outin_20=   1.0414m
 + 0:outin_21=   1.0414m  0:outin_30=   9.1920m  0:outin_31=   9.1920m
 + 0:vdd     = 800.0000m

 ******  
 $this uut was automatically generated by:

  ******  transient analysis tnom=  25.000 temp=  25.000 *****
 inv_avg_power00=   6.5025u  from=   0.          to=   4.0000n
 peakpower00=   1.5044m    at=   2.0354n
             from=   0.         to=   4.0000n
 inv_avg_power10= 329.3660n  from=   0.          to=   4.0000n
 peakpower10=  44.9427u    at=   2.0354n
             from=   0.         to=   4.0000n
 inv_avg_power01= 304.3325n  from=   0.          to=   4.0000n
 peakpower01=  23.7252u    at=  30.6856p
             from=   0.         to=   4.0000n
 inv_avg_power11= 260.7367n  from=   0.          to=   4.0000n
 peakpower11=  21.2406u    at=  30.6856p
             from=   0.         to=   4.0000n
 source_power=  10.2052u  from=   0.          to=   4.0000n
 trf_delay_001=   2.3725p  targ=  31.3895p   trig=  29.0171p
 tfr_delay_001=   2.5596p  targ=   1.0806n   trig=   1.0781n
 trf_delay_002=   2.1733p  targ=   2.0312n   trig=   2.0291n
 tfr_delay_002=   2.5947p  targ=   3.0804n   trig=   3.0778n
 trf_delay_101= 537.0347f  targ=   1.0812n   trig=   1.0806n
 tfr_delay_101= 431.6469f  targ=  31.8212p   trig=  31.3895p
 trf_delay_102=  -1.0451n  targ=   2.0353n   trig=   3.0804n
 tfr_delay_102=   1.3467p  targ=   2.0326n   trig=   2.0312n
 trf_delay_011=   2.3725p  targ=  31.3895p   trig=  29.0171p
 tfr_delay_011=   2.5264p  targ=   2.0804n   trig=   2.0779n
 trf_delay_111= 528.2212f  targ=   2.0810n   trig=   2.0804n
 tfr_delay_111= 431.6469f  targ=  31.8212p   trig=  31.3895p
x

        time    voltage      voltage    
                 outin_00     outin_10  
    0.            1.0221m    799.1963m  
   10.00000p     17.0332m    799.4152m  
   20.00000p     70.8090m    797.4833m  
   30.00000p    457.5763m    559.0047m  
   40.00000p    775.2114m      2.8885m  
   50.00000p    795.9120m    931.5968u  
   60.00000p    799.2139m      1.0146m  
   70.00000p    799.2196m      1.0702m  
   80.00000p    799.2130m      1.0306m  
   90.00000p    799.2118m      1.0221m  
  100.00000p    799.2142m      1.0337m  
  110.00000p    799.2165m      1.0453m  
  120.00000p    799.2188m      1.0569m  
  130.00000p    799.2204m      1.0649m  
  140.00000p    799.2196m      1.0609m  
  150.00000p    799.2187m      1.0569m  
  160.00000p    799.2179m      1.0528m  
  170.00000p    799.2170m      1.0488m  
  180.00000p    799.2161m      1.0447m  
  190.00000p    799.2153m      1.0407m  
  200.00000p    799.2144m      1.0366m  
  210.00000p    799.2136m      1.0326m  
  220.00000p    799.2127m      1.0285m  
  230.00000p    799.2119m      1.0245m  
  240.00000p    799.2110m      1.0204m  
  250.00000p    799.2102m      1.0164m  
  260.00000p    799.2107m      1.0189m  
  270.00000p    799.2112m      1.0213m  
  280.00000p    799.2118m      1.0237m  
  290.00000p    799.2123m      1.0262m  
  300.00000p    799.2128m      1.0286m  
  310.00000p    799.2133m      1.0311m  
  320.00000p    799.2139m      1.0335m  
  330.00000p    799.2144m      1.0360m  
  340.00000p    799.2149m      1.0384m  
  350.00000p    799.2154m      1.0408m  
  360.00000p    799.2160m      1.0433m  
  370.00000p    799.2165m      1.0457m  
  380.00000p    799.2170m      1.0482m  
  390.00000p    799.2175m      1.0506m  
  400.00000p    799.2181m      1.0531m  
  410.00000p    799.2186m      1.0555m  
  420.00000p    799.2191m      1.0579m  
  430.00000p    799.2197m      1.0604m  
  440.00000p    799.2202m      1.0628m  
  450.00000p    799.2207m      1.0652m  
  460.00000p    799.2202m      1.0628m  
  470.00000p    799.2196m      1.0604m  
  480.00000p    799.2191m      1.0580m  
  490.00000p    799.2186m      1.0556m  
  500.00000p    799.2181m      1.0531m  
  510.00000p    799.2175m      1.0507m  
  520.00000p    799.2170m      1.0483m  
  530.00000p    799.2165m      1.0459m  
  540.00000p    799.2159m      1.0435m  
  550.00000p    799.2154m      1.0410m  
  560.00000p    799.2149m      1.0386m  
  570.00000p    799.2143m      1.0362m  
  580.00000p    799.2138m      1.0338m  
  590.00000p    799.2133m      1.0314m  
  600.00000p    799.2127m      1.0289m  
  610.00000p    799.2122m      1.0265m  
  620.00000p    799.2117m      1.0241m  
  630.00000p    799.2112m      1.0217m  
  640.00000p    799.2106m      1.0193m  
  650.00000p    799.2101m      1.0169m  
  660.00000p    799.2106m      1.0193m  
  670.00000p    799.2112m      1.0217m  
  680.00000p    799.2117m      1.0241m  
  690.00000p    799.2122m      1.0265m  
  700.00000p    799.2128m      1.0289m  
  710.00000p    799.2133m      1.0313m  
  720.00000p    799.2138m      1.0337m  
  730.00000p    799.2144m      1.0361m  
  740.00000p    799.2149m      1.0385m  
  750.00000p    799.2154m      1.0409m  
  760.00000p    799.2160m      1.0432m  
  770.00000p    799.2165m      1.0456m  
  780.00000p    799.2170m      1.0480m  
  790.00000p    799.2176m      1.0504m  
  800.00000p    799.2181m      1.0528m  
  810.00000p    799.2186m      1.0552m  
  820.00000p    799.2192m      1.0576m  
  830.00000p    799.2197m      1.0600m  
  840.00000p    799.2202m      1.0624m  
  850.00000p    799.2208m      1.0648m  
  860.00000p    799.2202m      1.0624m  
  870.00000p    799.2197m      1.0600m  
  880.00000p    799.2192m      1.0577m  
  890.00000p    799.2186m      1.0553m  
  900.00000p    799.2181m      1.0529m  
  910.00000p    799.2175m      1.0505m  
  920.00000p    799.2170m      1.0482m  
  930.00000p    799.2165m      1.0458m  
  940.00000p    799.2159m      1.0434m  
  950.00000p    799.2154m      1.0410m  
  960.00000p    799.2149m      1.0387m  
  970.00000p    799.2143m      1.0363m  
  980.00000p    799.2138m      1.0339m  
  990.00000p    799.2133m      1.0315m  
    1.00000n    799.2127m      1.0292m  
    1.01000n    799.2122m      1.0268m  
    1.02000n    799.2117m      1.0244m  
    1.03000n    799.2111m      1.0220m  
    1.04000n    799.2106m      1.0197m  
    1.05000n    799.2100m      1.0173m  
    1.06000n    784.7498m    835.2272u  
    1.07000n    725.8575m      3.2770m  
    1.08000n    283.9425m    326.3516m  
    1.09000n     24.9873m    798.3855m  
    1.10000n      3.8315m    798.5104m  
    1.11000n      1.0196m    799.1948m  
    1.12000n      1.0249m    799.2002m  
    1.13000n      1.0316m    799.2121m  
    1.14000n      1.0251m    799.2015m  
    1.15000n      1.0186m    799.1909m  
    1.16000n      1.0121m    799.1803m  
    1.17000n      1.0111m    799.1786m  
    1.18000n      1.0139m    799.1830m  
    1.19000n      1.0166m    799.1874m  
    1.20000n      1.0193m    799.1918m  
    1.21000n      1.0221m    799.1962m  
    1.22000n      1.0248m    799.2006m  
    1.23000n      1.0276m    799.2050m  
    1.24000n      1.0303m    799.2094m  
    1.25000n      1.0330m    799.2138m  
    1.26000n      1.0340m    799.2154m  
    1.27000n      1.0327m    799.2134m  
    1.28000n      1.0315m    799.2114m  
    1.29000n      1.0303m    799.2094m  
    1.30000n      1.0290m    799.2074m  
    1.31000n      1.0278m    799.2054m  
    1.32000n      1.0265m    799.2034m  
    1.33000n      1.0253m    799.2014m  
    1.34000n      1.0240m    799.1995m  
    1.35000n      1.0228m    799.1975m  
    1.36000n      1.0215m    799.1955m  
    1.37000n      1.0203m    799.1935m  
    1.38000n      1.0191m    799.1915m  
    1.39000n      1.0178m    799.1895m  
    1.40000n      1.0166m    799.1875m  
    1.41000n      1.0153m    799.1856m  
    1.42000n      1.0141m    799.1836m  
    1.43000n      1.0128m    799.1816m  
    1.44000n      1.0116m    799.1796m  
    1.45000n      1.0104m    799.1776m  
    1.46000n      1.0102m    799.1774m  
    1.47000n      1.0115m    799.1794m  
    1.48000n      1.0127m    799.1814m  
    1.49000n      1.0139m    799.1833m  
    1.50000n      1.0152m    799.1853m  
    1.51000n      1.0164m    799.1873m  
    1.52000n      1.0177m    799.1892m  
    1.53000n      1.0189m    799.1912m  
    1.54000n      1.0201m    799.1932m  
    1.55000n      1.0214m    799.1951m  
    1.56000n      1.0226m    799.1971m  
    1.57000n      1.0238m    799.1991m  
    1.58000n      1.0251m    799.2011m  
    1.59000n      1.0263m    799.2030m  
    1.60000n      1.0276m    799.2050m  
    1.61000n      1.0288m    799.2070m  
    1.62000n      1.0300m    799.2089m  
    1.63000n      1.0313m    799.2109m  
    1.64000n      1.0325m    799.2129m  
    1.65000n      1.0337m    799.2149m  
    1.66000n      1.0339m    799.2151m  
    1.67000n      1.0326m    799.2131m  
    1.68000n      1.0314m    799.2111m  
    1.69000n      1.0302m    799.2092m  
    1.70000n      1.0289m    799.2072m  
    1.71000n      1.0277m    799.2053m  
    1.72000n      1.0265m    799.2033m  
    1.73000n      1.0252m    799.2014m  
    1.74000n      1.0240m    799.1994m  
    1.75000n      1.0228m    799.1975m  
    1.76000n      1.0216m    799.1955m  
    1.77000n      1.0203m    799.1935m  
    1.78000n      1.0191m    799.1916m  
    1.79000n      1.0179m    799.1896m  
    1.80000n      1.0166m    799.1877m  
    1.81000n      1.0154m    799.1857m  
    1.82000n      1.0142m    799.1838m  
    1.83000n      1.0129m    799.1818m  
    1.84000n      1.0117m    799.1799m  
    1.85000n      1.0105m    799.1779m  
    1.86000n      1.0106m    799.1780m  
    1.87000n      1.0123m    799.1807m  
    1.88000n      1.0139m    799.1834m  
    1.89000n      1.0156m    799.1861m  
    1.90000n      1.0173m    799.1888m  
    1.91000n      1.0190m    799.1914m  
    1.92000n      1.0207m    799.1941m  
    1.93000n      1.0224m    799.1968m  
    1.94000n      1.0241m    799.1995m  
    1.95000n      1.0258m    799.2022m  
    1.96000n      1.0275m    799.2048m  
    1.97000n      1.0292m    799.2075m  
    1.98000n      1.0309m    799.2102m  
    1.99000n      1.0326m    799.2129m  
    2.00000n      1.0343m    799.2156m  
    2.01000n     15.7725m    799.5593m  
    2.02000n     67.5621m    797.8357m  
    2.03000n    454.6662m    542.0702m  
    2.04000n      1.7200      -1.5942   
    2.05000n    795.9014m      1.1474m  
    2.06000n    799.2040m      1.0524m  
    2.07000n    799.2215m      1.0357m  
    2.08000n    799.2156m      1.0410m  
    2.09000n    799.2156m      1.0409m  
    2.10000n    799.2156m      1.0409m  
    2.11000n    799.2156m      1.0409m  
    2.12000n    799.2156m      1.0409m  
    2.13000n    799.2156m      1.0409m  
    2.14000n    799.2156m      1.0409m  
    2.15000n    799.2156m      1.0409m  
    2.16000n    799.2156m      1.0409m  
    2.17000n    799.2156m      1.0409m  
    2.18000n    799.2156m      1.0409m  
    2.19000n    799.2156m      1.0409m  
    2.20000n    799.2156m      1.0409m  
    2.21000n    799.2156m      1.0409m  
    2.22000n    799.2156m      1.0409m  
    2.23000n    799.2156m      1.0409m  
    2.24000n    799.2156m      1.0409m  
    2.25000n    799.2156m      1.0409m  
    2.26000n    799.2156m      1.0409m  
    2.27000n    799.2156m      1.0409m  
    2.28000n    799.2156m      1.0409m  
    2.29000n    799.2156m      1.0409m  
    2.30000n    799.2156m      1.0409m  
    2.31000n    799.2156m      1.0409m  
    2.32000n    799.2156m      1.0409m  
    2.33000n    799.2156m      1.0409m  
    2.34000n    799.2156m      1.0409m  
    2.35000n    799.2156m      1.0409m  
    2.36000n    799.2156m      1.0409m  
    2.37000n    799.2156m      1.0409m  
    2.38000n    799.2156m      1.0409m  
    2.39000n    799.2156m      1.0409m  
    2.40000n    799.2156m      1.0409m  
    2.41000n    799.2156m      1.0409m  
    2.42000n    799.2156m      1.0409m  
    2.43000n    799.2156m      1.0409m  
    2.44000n    799.2156m      1.0409m  
    2.45000n    799.2156m      1.0409m  
    2.46000n    799.2156m      1.0409m  
    2.47000n    799.2156m      1.0409m  
    2.48000n    799.2156m      1.0409m  
    2.49000n    799.2156m      1.0409m  
    2.50000n    799.2156m      1.0409m  
    2.51000n    799.2156m      1.0409m  
    2.52000n    799.2156m      1.0409m  
    2.53000n    799.2156m      1.0409m  
    2.54000n    799.2156m      1.0409m  
    2.55000n    799.2156m      1.0409m  
    2.56000n    799.2156m      1.0409m  
    2.57000n    799.2156m      1.0409m  
    2.58000n    799.2156m      1.0409m  
    2.59000n    799.2156m      1.0409m  
    2.60000n    799.2156m      1.0409m  
    2.61000n    799.2156m      1.0409m  
    2.62000n    799.2156m      1.0409m  
    2.63000n    799.2156m      1.0409m  
    2.64000n    799.2156m      1.0409m  
    2.65000n    799.2156m      1.0409m  
    2.66000n    799.2156m      1.0409m  
    2.67000n    799.2156m      1.0409m  
    2.68000n    799.2156m      1.0409m  
    2.69000n    799.2156m      1.0409m  
    2.70000n    799.2156m      1.0409m  
    2.71000n    799.2156m      1.0409m  
    2.72000n    799.2156m      1.0409m  
    2.73000n    799.2156m      1.0409m  
    2.74000n    799.2156m      1.0409m  
    2.75000n    799.2156m      1.0409m  
    2.76000n    799.2156m      1.0409m  
    2.77000n    799.2156m      1.0409m  
    2.78000n    799.2156m      1.0409m  
    2.79000n    799.2156m      1.0409m  
    2.80000n    799.2156m      1.0409m  
    2.81000n    799.2156m      1.0409m  
    2.82000n    799.2156m      1.0409m  
    2.83000n    799.2156m      1.0409m  
    2.84000n    799.2156m      1.0409m  
    2.85000n    799.2156m      1.0409m  
    2.86000n    799.2156m      1.0409m  
    2.87000n    799.2156m      1.0409m  
    2.88000n    799.2156m      1.0409m  
    2.89000n    799.2156m      1.0409m  
    2.90000n    799.2156m      1.0409m  
    2.91000n    799.2156m      1.0409m  
    2.92000n    799.2156m      1.0409m  
    2.93000n    799.2156m      1.0409m  
    2.94000n    799.2156m      1.0409m  
    2.95000n    799.2156m      1.0409m  
    2.96000n    799.2156m      1.0409m  
    2.97000n    799.2156m      1.0409m  
    2.98000n    799.2156m      1.0409m  
    2.99000n    799.2156m      1.0409m  
    3.00000n    799.2156m      1.0409m  
    3.01000n    799.2156m      1.0409m  
    3.02000n    799.2156m      1.0409m  
    3.03000n    799.2156m      1.0409m  
    3.04000n    799.2156m      1.0409m  
    3.05000n    799.2156m      1.0409m  
    3.06000n    785.7483m    755.7664u  
    3.07000n    694.5126m     25.4240m  
    3.08000n    280.0495m    361.1764m  
    3.09000n     -1.0436       2.9842   
    3.10000n   -720.8183m      1.9571   
    3.11000n      1.0386m    799.1982m  
    3.12000n      1.0462m    799.2084m  
    3.13000n      1.0217m    799.1959m  
    3.14000n    997.6654u    799.1836m  
    3.15000n      1.0095m    799.1898m  
    3.16000n      1.0213m    799.1960m  
    3.17000n      1.0331m    799.2022m  
    3.18000n      1.0449m    799.2084m  
    3.19000n      1.0422m    799.2069m  
    3.20000n      1.0372m    799.2043m  
    3.21000n      1.0322m    799.2016m  
    3.22000n      1.0272m    799.1990m  
    3.23000n      1.0222m    799.1964m  
    3.24000n      1.0172m    799.1937m  
    3.25000n      1.0122m    799.1911m  
    3.26000n      1.0072m    799.1884m  
    3.27000n      1.0022m    799.1858m  
    3.28000n    997.8710u    799.1834m  
    3.29000n      1.0004m    799.1848m  
    3.30000n      1.0028m    799.1861m  
    3.31000n      1.0053m    799.1874m  
    3.32000n      1.0078m    799.1887m  
    3.33000n      1.0103m    799.1901m  
    3.34000n      1.0128m    799.1914m  
    3.35000n      1.0153m    799.1927m  
    3.36000n      1.0178m    799.1940m  
    3.37000n      1.0202m    799.1953m  
    3.38000n      1.0227m    799.1967m  
    3.39000n      1.0252m    799.1980m  
    3.40000n      1.0277m    799.1993m  
    3.41000n      1.0302m    799.2006m  
    3.42000n      1.0327m    799.2020m  
    3.43000n      1.0352m    799.2033m  
    3.44000n      1.0376m    799.2046m  
    3.45000n      1.0401m    799.2059m  
    3.46000n      1.0426m    799.2073m  
    3.47000n      1.0451m    799.2086m  
    3.48000n      1.0454m    799.2087m  
    3.49000n      1.0430m    799.2074m  
    3.50000n      1.0405m    799.2061m  
    3.51000n      1.0381m    799.2048m  
    3.52000n      1.0356m    799.2035m  
    3.53000n      1.0332m    799.2022m  
    3.54000n      1.0308m    799.2009m  
    3.55000n      1.0283m    799.1996m  
    3.56000n      1.0259m    799.1983m  
    3.57000n      1.0234m    799.1970m  
    3.58000n      1.0210m    799.1957m  
    3.59000n      1.0186m    799.1944m  
    3.60000n      1.0161m    799.1931m  
    3.61000n      1.0137m    799.1918m  
    3.62000n      1.0112m    799.1905m  
    3.63000n      1.0088m    799.1892m  
    3.64000n      1.0064m    799.1879m  
    3.65000n      1.0039m    799.1866m  
    3.66000n      1.0015m    799.1853m  
    3.67000n    999.0514u    799.1840m  
    3.68000n    998.7807u    799.1839m  
    3.69000n      1.0012m    799.1852m  
    3.70000n      1.0037m    799.1865m  
    3.71000n      1.0061m    799.1878m  
    3.72000n      1.0085m    799.1891m  
    3.73000n      1.0110m    799.1904m  
    3.74000n      1.0134m    799.1917m  
    3.75000n      1.0158m    799.1930m  
    3.76000n      1.0183m    799.1943m  
    3.77000n      1.0207m    799.1956m  
    3.78000n      1.0232m    799.1969m  
    3.79000n      1.0256m    799.1982m  
    3.80000n      1.0280m    799.1995m  
    3.81000n      1.0305m    799.2008m  
    3.82000n      1.0329m    799.2021m  
    3.83000n      1.0353m    799.2034m  
    3.84000n      1.0378m    799.2047m  
    3.85000n      1.0402m    799.2060m  
    3.86000n      1.0427m    799.2073m  
    3.87000n      1.0451m    799.2086m  
    3.88000n      1.0447m    799.2084m  
    3.89000n      1.0408m    799.2063m  
    3.90000n      1.0369m    799.2042m  
    3.91000n      1.0330m    799.2021m  
    3.92000n      1.0290m    799.2000m  
    3.93000n      1.0251m    799.1979m  
    3.94000n      1.0212m    799.1958m  
    3.95000n      1.0173m    799.1937m  
    3.96000n      1.0134m    799.1916m  
    3.97000n      1.0095m    799.1895m  
    3.98000n      1.0056m    799.1874m  
    3.99000n      1.0016m    799.1853m  
    4.00000n    997.7303u    799.1832m  
y
x

        time    voltage      voltage    
                 outin_10     outin_20  
    0.          799.1963m      1.0414m  
   10.00000p    799.4152m      1.0408m  
   20.00000p    797.4833m      1.0118m  
   30.00000p    559.0047m    118.9577m  
   40.00000p      2.8885m    798.8986m  
   50.00000p    931.5968u    799.4703m  
   60.00000p      1.0146m    799.2045m  
   70.00000p      1.0702m    799.1876m  
   80.00000p      1.0306m    799.1985m  
   90.00000p      1.0221m    799.2010m  
  100.00000p      1.0337m    799.1980m  
  110.00000p      1.0453m    799.1950m  
  120.00000p      1.0569m    799.1921m  
  130.00000p      1.0649m    799.1900m  
  140.00000p      1.0609m    799.1910m  
  150.00000p      1.0569m    799.1920m  
  160.00000p      1.0528m    799.1930m  
  170.00000p      1.0488m    799.1940m  
  180.00000p      1.0447m    799.1950m  
  190.00000p      1.0407m    799.1960m  
  200.00000p      1.0366m    799.1971m  
  210.00000p      1.0326m    799.1981m  
  220.00000p      1.0285m    799.1991m  
  230.00000p      1.0245m    799.2001m  
  240.00000p      1.0204m    799.2011m  
  250.00000p      1.0164m    799.2021m  
  260.00000p      1.0189m    799.2015m  
  270.00000p      1.0213m    799.2009m  
  280.00000p      1.0237m    799.2003m  
  290.00000p      1.0262m    799.1997m  
  300.00000p      1.0286m    799.1991m  
  310.00000p      1.0311m    799.1985m  
  320.00000p      1.0335m    799.1979m  
  330.00000p      1.0360m    799.1973m  
  340.00000p      1.0384m    799.1967m  
  350.00000p      1.0408m    799.1961m  
  360.00000p      1.0433m    799.1955m  
  370.00000p      1.0457m    799.1949m  
  380.00000p      1.0482m    799.1943m  
  390.00000p      1.0506m    799.1937m  
  400.00000p      1.0531m    799.1930m  
  410.00000p      1.0555m    799.1924m  
  420.00000p      1.0579m    799.1918m  
  430.00000p      1.0604m    799.1912m  
  440.00000p      1.0628m    799.1906m  
  450.00000p      1.0652m    799.1900m  
  460.00000p      1.0628m    799.1906m  
  470.00000p      1.0604m    799.1912m  
  480.00000p      1.0580m    799.1918m  
  490.00000p      1.0556m    799.1924m  
  500.00000p      1.0531m    799.1930m  
  510.00000p      1.0507m    799.1936m  
  520.00000p      1.0483m    799.1942m  
  530.00000p      1.0459m    799.1948m  
  540.00000p      1.0435m    799.1954m  
  550.00000p      1.0410m    799.1960m  
  560.00000p      1.0386m    799.1966m  
  570.00000p      1.0362m    799.1971m  
  580.00000p      1.0338m    799.1977m  
  590.00000p      1.0314m    799.1983m  
  600.00000p      1.0289m    799.1989m  
  610.00000p      1.0265m    799.1995m  
  620.00000p      1.0241m    799.2001m  
  630.00000p      1.0217m    799.2007m  
  640.00000p      1.0193m    799.2013m  
  650.00000p      1.0169m    799.2019m  
  660.00000p      1.0193m    799.2013m  
  670.00000p      1.0217m    799.2007m  
  680.00000p      1.0241m    799.2001m  
  690.00000p      1.0265m    799.1996m  
  700.00000p      1.0289m    799.1990m  
  710.00000p      1.0313m    799.1984m  
  720.00000p      1.0337m    799.1978m  
  730.00000p      1.0361m    799.1972m  
  740.00000p      1.0385m    799.1966m  
  750.00000p      1.0409m    799.1961m  
  760.00000p      1.0432m    799.1955m  
  770.00000p      1.0456m    799.1949m  
  780.00000p      1.0480m    799.1943m  
  790.00000p      1.0504m    799.1937m  
  800.00000p      1.0528m    799.1932m  
  810.00000p      1.0552m    799.1926m  
  820.00000p      1.0576m    799.1920m  
  830.00000p      1.0600m    799.1914m  
  840.00000p      1.0624m    799.1908m  
  850.00000p      1.0648m    799.1903m  
  860.00000p      1.0624m    799.1908m  
  870.00000p      1.0600m    799.1914m  
  880.00000p      1.0577m    799.1920m  
  890.00000p      1.0553m    799.1925m  
  900.00000p      1.0529m    799.1931m  
  910.00000p      1.0505m    799.1937m  
  920.00000p      1.0482m    799.1943m  
  930.00000p      1.0458m    799.1948m  
  940.00000p      1.0434m    799.1954m  
  950.00000p      1.0410m    799.1960m  
  960.00000p      1.0387m    799.1965m  
  970.00000p      1.0363m    799.1971m  
  980.00000p      1.0339m    799.1977m  
  990.00000p      1.0315m    799.1982m  
    1.00000n      1.0292m    799.1988m  
    1.01000n      1.0268m    799.1994m  
    1.02000n      1.0244m    799.2000m  
    1.03000n      1.0220m    799.2005m  
    1.04000n      1.0197m    799.2011m  
    1.05000n      1.0173m    799.2017m  
    1.06000n    835.2272u    799.1870m  
    1.07000n      3.2770m    799.2570m  
    1.08000n    326.3516m    699.2651m  
    1.09000n    798.3855m      2.6676m  
    1.10000n    798.5104m   -258.3605u  
    1.11000n    799.1948m      1.0384m  
    1.12000n    799.2002m      1.0435m  
    1.13000n    799.2121m      1.0463m  
    1.14000n    799.2015m      1.0428m  
    1.15000n    799.1909m      1.0393m  
    1.16000n    799.1803m      1.0358m  
    1.17000n    799.1786m      1.0353m  
    1.18000n    799.1830m      1.0369m  
    1.19000n    799.1874m      1.0384m  
    1.20000n    799.1918m      1.0400m  
    1.21000n    799.1962m      1.0415m  
    1.22000n    799.2006m      1.0431m  
    1.23000n    799.2050m      1.0446m  
    1.24000n    799.2094m      1.0461m  
    1.25000n    799.2138m      1.0477m  
    1.26000n    799.2154m      1.0482m  
    1.27000n    799.2134m      1.0475m  
    1.28000n    799.2114m      1.0468m  
    1.29000n    799.2094m      1.0461m  
    1.30000n    799.2074m      1.0453m  
    1.31000n    799.2054m      1.0446m  
    1.32000n    799.2034m      1.0439m  
    1.33000n    799.2014m      1.0432m  
    1.34000n    799.1995m      1.0425m  
    1.35000n    799.1975m      1.0418m  
    1.36000n    799.1955m      1.0410m  
    1.37000n    799.1935m      1.0403m  
    1.38000n    799.1915m      1.0396m  
    1.39000n    799.1895m      1.0389m  
    1.40000n    799.1875m      1.0382m  
    1.41000n    799.1856m      1.0375m  
    1.42000n    799.1836m      1.0368m  
    1.43000n    799.1816m      1.0360m  
    1.44000n    799.1796m      1.0353m  
    1.45000n    799.1776m      1.0346m  
    1.46000n    799.1774m      1.0345m  
    1.47000n    799.1794m      1.0353m  
    1.48000n    799.1814m      1.0360m  
    1.49000n    799.1833m      1.0367m  
    1.50000n    799.1853m      1.0374m  
    1.51000n    799.1873m      1.0382m  
    1.52000n    799.1892m      1.0389m  
    1.53000n    799.1912m      1.0396m  
    1.54000n    799.1932m      1.0403m  
    1.55000n    799.1951m      1.0410m  
    1.56000n    799.1971m      1.0418m  
    1.57000n    799.1991m      1.0425m  
    1.58000n    799.2011m      1.0432m  
    1.59000n    799.2030m      1.0439m  
    1.60000n    799.2050m      1.0446m  
    1.61000n    799.2070m      1.0454m  
    1.62000n    799.2089m      1.0461m  
    1.63000n    799.2109m      1.0468m  
    1.64000n    799.2129m      1.0475m  
    1.65000n    799.2149m      1.0483m  
    1.66000n    799.2151m      1.0483m  
    1.67000n    799.2131m      1.0476m  
    1.68000n    799.2111m      1.0469m  
    1.69000n    799.2092m      1.0461m  
    1.70000n    799.2072m      1.0454m  
    1.71000n    799.2053m      1.0447m  
    1.72000n    799.2033m      1.0440m  
    1.73000n    799.2014m      1.0432m  
    1.74000n    799.1994m      1.0425m  
    1.75000n    799.1975m      1.0418m  
    1.76000n    799.1955m      1.0410m  
    1.77000n    799.1935m      1.0403m  
    1.78000n    799.1916m      1.0396m  
    1.79000n    799.1896m      1.0389m  
    1.80000n    799.1877m      1.0381m  
    1.81000n    799.1857m      1.0374m  
    1.82000n    799.1838m      1.0367m  
    1.83000n    799.1818m      1.0359m  
    1.84000n    799.1799m      1.0352m  
    1.85000n    799.1779m      1.0345m  
    1.86000n    799.1780m      1.0345m  
    1.87000n    799.1807m      1.0356m  
    1.88000n    799.1834m      1.0366m  
    1.89000n    799.1861m      1.0376m  
    1.90000n    799.1888m      1.0386m  
    1.91000n    799.1914m      1.0396m  
    1.92000n    799.1941m      1.0407m  
    1.93000n    799.1968m      1.0417m  
    1.94000n    799.1995m      1.0427m  
    1.95000n    799.2022m      1.0437m  
    1.96000n    799.2048m      1.0447m  
    1.97000n    799.2075m      1.0457m  
    1.98000n    799.2102m      1.0468m  
    1.99000n    799.2129m      1.0478m  
    2.00000n    799.2156m      1.0488m  
    2.01000n    799.5593m      1.0537m  
    2.02000n    797.8357m      1.0151m  
    2.03000n    542.0702m     67.5196m  
    2.04000n     -1.5942     842.6126m  
    2.05000n      1.1474m    799.2042m  
    2.06000n      1.0524m    799.1786m  
    2.07000n      1.0357m    799.2069m  
    2.08000n      1.0410m    799.1961m  
    2.09000n      1.0409m    799.1960m  
    2.10000n      1.0409m    799.1960m  
    2.11000n      1.0409m    799.1960m  
    2.12000n      1.0409m    799.1960m  
    2.13000n      1.0409m    799.1960m  
    2.14000n      1.0409m    799.1960m  
    2.15000n      1.0409m    799.1960m  
    2.16000n      1.0409m    799.1960m  
    2.17000n      1.0409m    799.1960m  
    2.18000n      1.0409m    799.1960m  
    2.19000n      1.0409m    799.1960m  
    2.20000n      1.0409m    799.1960m  
    2.21000n      1.0409m    799.1960m  
    2.22000n      1.0409m    799.1960m  
    2.23000n      1.0409m    799.1960m  
    2.24000n      1.0409m    799.1960m  
    2.25000n      1.0409m    799.1960m  
    2.26000n      1.0409m    799.1960m  
    2.27000n      1.0409m    799.1960m  
    2.28000n      1.0409m    799.1960m  
    2.29000n      1.0409m    799.1960m  
    2.30000n      1.0409m    799.1960m  
    2.31000n      1.0409m    799.1960m  
    2.32000n      1.0409m    799.1960m  
    2.33000n      1.0409m    799.1960m  
    2.34000n      1.0409m    799.1960m  
    2.35000n      1.0409m    799.1960m  
    2.36000n      1.0409m    799.1960m  
    2.37000n      1.0409m    799.1960m  
    2.38000n      1.0409m    799.1960m  
    2.39000n      1.0409m    799.1960m  
    2.40000n      1.0409m    799.1960m  
    2.41000n      1.0409m    799.1960m  
    2.42000n      1.0409m    799.1960m  
    2.43000n      1.0409m    799.1960m  
    2.44000n      1.0409m    799.1960m  
    2.45000n      1.0409m    799.1960m  
    2.46000n      1.0409m    799.1960m  
    2.47000n      1.0409m    799.1960m  
    2.48000n      1.0409m    799.1960m  
    2.49000n      1.0409m    799.1960m  
    2.50000n      1.0409m    799.1960m  
    2.51000n      1.0409m    799.1960m  
    2.52000n      1.0409m    799.1960m  
    2.53000n      1.0409m    799.1960m  
    2.54000n      1.0409m    799.1960m  
    2.55000n      1.0409m    799.1960m  
    2.56000n      1.0409m    799.1960m  
    2.57000n      1.0409m    799.1960m  
    2.58000n      1.0409m    799.1960m  
    2.59000n      1.0409m    799.1960m  
    2.60000n      1.0409m    799.1960m  
    2.61000n      1.0409m    799.1960m  
    2.62000n      1.0409m    799.1960m  
    2.63000n      1.0409m    799.1960m  
    2.64000n      1.0409m    799.1960m  
    2.65000n      1.0409m    799.1960m  
    2.66000n      1.0409m    799.1960m  
    2.67000n      1.0409m    799.1960m  
    2.68000n      1.0409m    799.1960m  
    2.69000n      1.0409m    799.1960m  
    2.70000n      1.0409m    799.1960m  
    2.71000n      1.0409m    799.1960m  
    2.72000n      1.0409m    799.1960m  
    2.73000n      1.0409m    799.1960m  
    2.74000n      1.0409m    799.1960m  
    2.75000n      1.0409m    799.1960m  
    2.76000n      1.0409m    799.1960m  
    2.77000n      1.0409m    799.1960m  
    2.78000n      1.0409m    799.1960m  
    2.79000n      1.0409m    799.1960m  
    2.80000n      1.0409m    799.1960m  
    2.81000n      1.0409m    799.1960m  
    2.82000n      1.0409m    799.1960m  
    2.83000n      1.0409m    799.1960m  
    2.84000n      1.0409m    799.1960m  
    2.85000n      1.0409m    799.1960m  
    2.86000n      1.0409m    799.1960m  
    2.87000n      1.0409m    799.1960m  
    2.88000n      1.0409m    799.1960m  
    2.89000n      1.0409m    799.1960m  
    2.90000n      1.0409m    799.1960m  
    2.91000n      1.0409m    799.1960m  
    2.92000n      1.0409m    799.1960m  
    2.93000n      1.0409m    799.1960m  
    2.94000n      1.0409m    799.1960m  
    2.95000n      1.0409m    799.1960m  
    2.96000n      1.0409m    799.1960m  
    2.97000n      1.0409m    799.1960m  
    2.98000n      1.0409m    799.1960m  
    2.99000n      1.0409m    799.1960m  
    3.00000n      1.0409m    799.1960m  
    3.01000n      1.0409m    799.1960m  
    3.02000n      1.0409m    799.1960m  
    3.03000n      1.0409m    799.1960m  
    3.04000n      1.0409m    799.1960m  
    3.05000n      1.0409m    799.1960m  
    3.06000n    755.7664u    799.1798m  
    3.07000n     25.4240m    797.2022m  
    3.08000n    361.1764m    514.2146m  
    3.09000n      2.9842      11.0857m  
    3.10000n      1.9571     -36.6498m  
    3.11000n    799.1982m      1.0565m  
    3.12000n    799.2084m      1.0636m  
    3.13000n    799.1959m      1.0411m  
    3.14000n    799.1836m      1.0190m  
    3.15000n    799.1898m      1.0298m  
    3.16000n    799.1960m      1.0407m  
    3.17000n    799.2022m      1.0515m  
    3.18000n    799.2084m      1.0624m  
    3.19000n    799.2069m      1.0599m  
    3.20000n    799.2043m      1.0553m  
    3.21000n    799.2016m      1.0507m  
    3.22000n    799.1990m      1.0461m  
    3.23000n    799.1964m      1.0416m  
    3.24000n    799.1937m      1.0370m  
    3.25000n    799.1911m      1.0324m  
    3.26000n    799.1884m      1.0278m  
    3.27000n    799.1858m      1.0232m  
    3.28000n    799.1834m      1.0192m  
    3.29000n    799.1848m      1.0215m  
    3.30000n    799.1861m      1.0237m  
    3.31000n    799.1874m      1.0260m  
    3.32000n    799.1887m      1.0283m  
    3.33000n    799.1901m      1.0306m  
    3.34000n    799.1914m      1.0329m  
    3.35000n    799.1927m      1.0352m  
    3.36000n    799.1940m      1.0374m  
    3.37000n    799.1953m      1.0397m  
    3.38000n    799.1967m      1.0420m  
    3.39000n    799.1980m      1.0443m  
    3.40000n    799.1993m      1.0466m  
    3.41000n    799.2006m      1.0488m  
    3.42000n    799.2020m      1.0511m  
    3.43000n    799.2033m      1.0534m  
    3.44000n    799.2046m      1.0557m  
    3.45000n    799.2059m      1.0580m  
    3.46000n    799.2073m      1.0602m  
    3.47000n    799.2086m      1.0625m  
    3.48000n    799.2087m      1.0628m  
    3.49000n    799.2074m      1.0606m  
    3.50000n    799.2061m      1.0583m  
    3.51000n    799.2048m      1.0561m  
    3.52000n    799.2035m      1.0538m  
    3.53000n    799.2022m      1.0516m  
    3.54000n    799.2009m      1.0494m  
    3.55000n    799.1996m      1.0471m  
    3.56000n    799.1983m      1.0449m  
    3.57000n    799.1970m      1.0427m  
    3.58000n    799.1957m      1.0404m  
    3.59000n    799.1944m      1.0382m  
    3.60000n    799.1931m      1.0359m  
    3.61000n    799.1918m      1.0337m  
    3.62000n    799.1905m      1.0315m  
    3.63000n    799.1892m      1.0292m  
    3.64000n    799.1879m      1.0270m  
    3.65000n    799.1866m      1.0248m  
    3.66000n    799.1853m      1.0225m  
    3.67000n    799.1840m      1.0203m  
    3.68000n    799.1839m      1.0200m  
    3.69000n    799.1852m      1.0223m  
    3.70000n    799.1865m      1.0245m  
    3.71000n    799.1878m      1.0267m  
    3.72000n    799.1891m      1.0290m  
    3.73000n    799.1904m      1.0312m  
    3.74000n    799.1917m      1.0335m  
    3.75000n    799.1930m      1.0357m  
    3.76000n    799.1943m      1.0379m  
    3.77000n    799.1956m      1.0402m  
    3.78000n    799.1969m      1.0424m  
    3.79000n    799.1982m      1.0446m  
    3.80000n    799.1995m      1.0469m  
    3.81000n    799.2008m      1.0491m  
    3.82000n    799.2021m      1.0513m  
    3.83000n    799.2034m      1.0536m  
    3.84000n    799.2047m      1.0558m  
    3.85000n    799.2060m      1.0580m  
    3.86000n    799.2073m      1.0603m  
    3.87000n    799.2086m      1.0625m  
    3.88000n    799.2084m      1.0622m  
    3.89000n    799.2063m      1.0586m  
    3.90000n    799.2042m      1.0550m  
    3.91000n    799.2021m      1.0514m  
    3.92000n    799.2000m      1.0478m  
    3.93000n    799.1979m      1.0442m  
    3.94000n    799.1958m      1.0406m  
    3.95000n    799.1937m      1.0370m  
    3.96000n    799.1916m      1.0334m  
    3.97000n    799.1895m      1.0299m  
    3.98000n    799.1874m      1.0263m  
    3.99000n    799.1853m      1.0227m  
    4.00000n    799.1832m      1.0191m  
y
x

        time    voltage      voltage    
                 outin_01     outin_11  
    0.            1.0221m    799.1963m  
   10.00000p     17.0332m    799.4152m  
   20.00000p     70.8090m    797.4833m  
   30.00000p    457.5763m    559.0047m  
   40.00000p    775.2114m      2.8885m  
   50.00000p    795.9120m    931.5968u  
   60.00000p    799.2139m      1.0146m  
   70.00000p    799.2196m      1.0702m  
   80.00000p    799.2130m      1.0306m  
   90.00000p    799.2118m      1.0221m  
  100.00000p    799.2142m      1.0337m  
  110.00000p    799.2165m      1.0453m  
  120.00000p    799.2188m      1.0569m  
  130.00000p    799.2204m      1.0649m  
  140.00000p    799.2196m      1.0609m  
  150.00000p    799.2187m      1.0569m  
  160.00000p    799.2179m      1.0528m  
  170.00000p    799.2170m      1.0488m  
  180.00000p    799.2161m      1.0447m  
  190.00000p    799.2153m      1.0407m  
  200.00000p    799.2144m      1.0366m  
  210.00000p    799.2136m      1.0326m  
  220.00000p    799.2127m      1.0285m  
  230.00000p    799.2119m      1.0245m  
  240.00000p    799.2110m      1.0204m  
  250.00000p    799.2102m      1.0164m  
  260.00000p    799.2107m      1.0189m  
  270.00000p    799.2112m      1.0213m  
  280.00000p    799.2118m      1.0237m  
  290.00000p    799.2123m      1.0262m  
  300.00000p    799.2128m      1.0286m  
  310.00000p    799.2133m      1.0311m  
  320.00000p    799.2139m      1.0335m  
  330.00000p    799.2144m      1.0360m  
  340.00000p    799.2149m      1.0384m  
  350.00000p    799.2154m      1.0408m  
  360.00000p    799.2160m      1.0433m  
  370.00000p    799.2165m      1.0457m  
  380.00000p    799.2170m      1.0482m  
  390.00000p    799.2175m      1.0506m  
  400.00000p    799.2181m      1.0531m  
  410.00000p    799.2186m      1.0555m  
  420.00000p    799.2191m      1.0579m  
  430.00000p    799.2197m      1.0604m  
  440.00000p    799.2202m      1.0628m  
  450.00000p    799.2207m      1.0652m  
  460.00000p    799.2202m      1.0628m  
  470.00000p    799.2196m      1.0604m  
  480.00000p    799.2191m      1.0580m  
  490.00000p    799.2186m      1.0556m  
  500.00000p    799.2181m      1.0531m  
  510.00000p    799.2175m      1.0507m  
  520.00000p    799.2170m      1.0483m  
  530.00000p    799.2165m      1.0459m  
  540.00000p    799.2159m      1.0435m  
  550.00000p    799.2154m      1.0410m  
  560.00000p    799.2149m      1.0386m  
  570.00000p    799.2143m      1.0362m  
  580.00000p    799.2138m      1.0338m  
  590.00000p    799.2133m      1.0314m  
  600.00000p    799.2127m      1.0289m  
  610.00000p    799.2122m      1.0265m  
  620.00000p    799.2117m      1.0241m  
  630.00000p    799.2112m      1.0217m  
  640.00000p    799.2106m      1.0193m  
  650.00000p    799.2101m      1.0169m  
  660.00000p    799.2106m      1.0193m  
  670.00000p    799.2112m      1.0217m  
  680.00000p    799.2117m      1.0241m  
  690.00000p    799.2122m      1.0265m  
  700.00000p    799.2128m      1.0289m  
  710.00000p    799.2133m      1.0313m  
  720.00000p    799.2138m      1.0337m  
  730.00000p    799.2144m      1.0361m  
  740.00000p    799.2149m      1.0385m  
  750.00000p    799.2154m      1.0409m  
  760.00000p    799.2160m      1.0432m  
  770.00000p    799.2165m      1.0456m  
  780.00000p    799.2170m      1.0480m  
  790.00000p    799.2176m      1.0504m  
  800.00000p    799.2181m      1.0528m  
  810.00000p    799.2186m      1.0552m  
  820.00000p    799.2192m      1.0576m  
  830.00000p    799.2197m      1.0600m  
  840.00000p    799.2202m      1.0624m  
  850.00000p    799.2208m      1.0648m  
  860.00000p    799.2202m      1.0624m  
  870.00000p    799.2197m      1.0600m  
  880.00000p    799.2192m      1.0577m  
  890.00000p    799.2186m      1.0553m  
  900.00000p    799.2181m      1.0529m  
  910.00000p    799.2175m      1.0505m  
  920.00000p    799.2170m      1.0482m  
  930.00000p    799.2165m      1.0458m  
  940.00000p    799.2159m      1.0434m  
  950.00000p    799.2154m      1.0410m  
  960.00000p    799.2149m      1.0387m  
  970.00000p    799.2143m      1.0363m  
  980.00000p    799.2138m      1.0339m  
  990.00000p    799.2133m      1.0315m  
    1.00000n    799.2127m      1.0292m  
    1.01000n    799.2122m      1.0268m  
    1.02000n    799.2117m      1.0244m  
    1.03000n    799.2111m      1.0220m  
    1.04000n    799.2106m      1.0197m  
    1.05000n    799.2100m      1.0173m  
    1.06000n    799.2157m      1.0411m  
    1.07000n    799.2156m      1.0409m  
    1.08000n    799.2156m      1.0409m  
    1.09000n    799.2156m      1.0409m  
    1.10000n    799.2156m      1.0409m  
    1.11000n    799.2156m      1.0409m  
    1.12000n    799.2156m      1.0409m  
    1.13000n    799.2156m      1.0409m  
    1.14000n    799.2156m      1.0409m  
    1.15000n    799.2156m      1.0409m  
    1.16000n    799.2156m      1.0409m  
    1.17000n    799.2156m      1.0409m  
    1.18000n    799.2156m      1.0409m  
    1.19000n    799.2156m      1.0409m  
    1.20000n    799.2156m      1.0409m  
    1.21000n    799.2156m      1.0409m  
    1.22000n    799.2156m      1.0409m  
    1.23000n    799.2156m      1.0409m  
    1.24000n    799.2156m      1.0409m  
    1.25000n    799.2156m      1.0409m  
    1.26000n    799.2156m      1.0409m  
    1.27000n    799.2156m      1.0409m  
    1.28000n    799.2156m      1.0409m  
    1.29000n    799.2156m      1.0409m  
    1.30000n    799.2156m      1.0409m  
    1.31000n    799.2156m      1.0409m  
    1.32000n    799.2156m      1.0409m  
    1.33000n    799.2156m      1.0409m  
    1.34000n    799.2156m      1.0409m  
    1.35000n    799.2156m      1.0409m  
    1.36000n    799.2156m      1.0409m  
    1.37000n    799.2156m      1.0409m  
    1.38000n    799.2156m      1.0409m  
    1.39000n    799.2156m      1.0409m  
    1.40000n    799.2156m      1.0409m  
    1.41000n    799.2156m      1.0409m  
    1.42000n    799.2156m      1.0409m  
    1.43000n    799.2156m      1.0409m  
    1.44000n    799.2156m      1.0409m  
    1.45000n    799.2156m      1.0409m  
    1.46000n    799.2156m      1.0409m  
    1.47000n    799.2156m      1.0409m  
    1.48000n    799.2156m      1.0409m  
    1.49000n    799.2156m      1.0409m  
    1.50000n    799.2156m      1.0409m  
    1.51000n    799.2156m      1.0409m  
    1.52000n    799.2156m      1.0409m  
    1.53000n    799.2156m      1.0409m  
    1.54000n    799.2156m      1.0409m  
    1.55000n    799.2156m      1.0409m  
    1.56000n    799.2156m      1.0409m  
    1.57000n    799.2156m      1.0409m  
    1.58000n    799.2156m      1.0409m  
    1.59000n    799.2156m      1.0409m  
    1.60000n    799.2156m      1.0409m  
    1.61000n    799.2156m      1.0409m  
    1.62000n    799.2156m      1.0409m  
    1.63000n    799.2156m      1.0409m  
    1.64000n    799.2156m      1.0409m  
    1.65000n    799.2156m      1.0409m  
    1.66000n    799.2156m      1.0409m  
    1.67000n    799.2156m      1.0409m  
    1.68000n    799.2156m      1.0409m  
    1.69000n    799.2156m      1.0409m  
    1.70000n    799.2156m      1.0409m  
    1.71000n    799.2156m      1.0409m  
    1.72000n    799.2156m      1.0409m  
    1.73000n    799.2156m      1.0409m  
    1.74000n    799.2156m      1.0409m  
    1.75000n    799.2156m      1.0409m  
    1.76000n    799.2156m      1.0409m  
    1.77000n    799.2156m      1.0409m  
    1.78000n    799.2156m      1.0409m  
    1.79000n    799.2156m      1.0409m  
    1.80000n    799.2156m      1.0409m  
    1.81000n    799.2156m      1.0409m  
    1.82000n    799.2156m      1.0409m  
    1.83000n    799.2156m      1.0409m  
    1.84000n    799.2156m      1.0409m  
    1.85000n    799.2156m      1.0409m  
    1.86000n    799.2156m      1.0409m  
    1.87000n    799.2156m      1.0409m  
    1.88000n    799.2156m      1.0409m  
    1.89000n    799.2156m      1.0409m  
    1.90000n    799.2156m      1.0409m  
    1.91000n    799.2156m      1.0409m  
    1.92000n    799.2156m      1.0409m  
    1.93000n    799.2156m      1.0409m  
    1.94000n    799.2156m      1.0409m  
    1.95000n    799.2156m      1.0409m  
    1.96000n    799.2156m      1.0409m  
    1.97000n    799.2156m      1.0409m  
    1.98000n    799.2156m      1.0409m  
    1.99000n    799.2156m      1.0409m  
    2.00000n    799.2156m      1.0409m  
    2.01000n    799.2156m      1.0409m  
    2.02000n    799.2156m      1.0409m  
    2.03000n    799.2156m      1.0409m  
    2.04000n    799.2156m      1.0409m  
    2.05000n    799.2156m      1.0409m  
    2.06000n    784.6185m    910.4958u  
    2.07000n    686.9675m     10.1549m  
    2.08000n    285.6235m    354.7233m  
    2.09000n     24.7436m    797.7848m  
    2.10000n      3.7440m    798.3020m  
    2.11000n      1.0399m    799.2016m  
    2.12000n      1.0109m    799.1908m  
    2.13000n      1.0286m    799.2003m  
    2.14000n      1.0365m    799.2044m  
    2.15000n      1.0306m    799.2010m  
    2.16000n      1.0247m    799.1976m  
    2.17000n      1.0188m    799.1943m  
    2.18000n      1.0129m    799.1909m  
    2.19000n      1.0071m    799.1875m  
    2.20000n      1.0077m    799.1879m  
    2.21000n      1.0103m    799.1895m  
    2.22000n      1.0130m    799.1910m  
    2.23000n      1.0156m    799.1925m  
    2.24000n      1.0182m    799.1941m  
    2.25000n      1.0208m    799.1956m  
    2.26000n      1.0234m    799.1972m  
    2.27000n      1.0260m    799.1987m  
    2.28000n      1.0286m    799.2002m  
    2.29000n      1.0312m    799.2018m  
    2.30000n      1.0338m    799.2033m  
    2.31000n      1.0365m    799.2049m  
    2.32000n      1.0377m    799.2056m  
    2.33000n      1.0361m    799.2046m  
    2.34000n      1.0345m    799.2037m  
    2.35000n      1.0329m    799.2027m  
    2.36000n      1.0313m    799.2018m  
    2.37000n      1.0297m    799.2008m  
    2.38000n      1.0281m    799.1998m  
    2.39000n      1.0265m    799.1989m  
    2.40000n      1.0249m    799.1979m  
    2.41000n      1.0232m    799.1970m  
    2.42000n      1.0216m    799.1960m  
    2.43000n      1.0200m    799.1950m  
    2.44000n      1.0184m    799.1941m  
    2.45000n      1.0168m    799.1931m  
    2.46000n      1.0152m    799.1921m  
    2.47000n      1.0136m    799.1912m  
    2.48000n      1.0120m    799.1902m  
    2.49000n      1.0104m    799.1893m  
    2.50000n      1.0088m    799.1883m  
    2.51000n      1.0072m    799.1873m  
    2.52000n      1.0066m    799.1870m  
    2.53000n      1.0082m    799.1880m  
    2.54000n      1.0098m    799.1889m  
    2.55000n      1.0114m    799.1899m  
    2.56000n      1.0129m    799.1908m  
    2.57000n      1.0145m    799.1918m  
    2.58000n      1.0161m    799.1928m  
    2.59000n      1.0177m    799.1937m  
    2.60000n      1.0193m    799.1947m  
    2.61000n      1.0209m    799.1957m  
    2.62000n      1.0225m    799.1966m  
    2.63000n      1.0241m    799.1976m  
    2.64000n      1.0257m    799.1985m  
    2.65000n      1.0273m    799.1995m  
    2.66000n      1.0289m    799.2005m  
    2.67000n      1.0305m    799.2014m  
    2.68000n      1.0321m    799.2024m  
    2.69000n      1.0337m    799.2034m  
    2.70000n      1.0353m    799.2043m  
    2.71000n      1.0369m    799.2053m  
    2.72000n      1.0375m    799.2056m  
    2.73000n      1.0359m    799.2047m  
    2.74000n      1.0343m    799.2037m  
    2.75000n      1.0327m    799.2027m  
    2.76000n      1.0311m    799.2018m  
    2.77000n      1.0296m    799.2008m  
    2.78000n      1.0280m    799.1998m  
    2.79000n      1.0264m    799.1989m  
    2.80000n      1.0248m    799.1979m  
    2.81000n      1.0232m    799.1970m  
    2.82000n      1.0216m    799.1960m  
    2.83000n      1.0201m    799.1950m  
    2.84000n      1.0185m    799.1941m  
    2.85000n      1.0169m    799.1931m  
    2.86000n      1.0153m    799.1921m  
    2.87000n      1.0137m    799.1912m  
    2.88000n      1.0121m    799.1902m  
    2.89000n      1.0106m    799.1892m  
    2.90000n      1.0090m    799.1883m  
    2.91000n      1.0074m    799.1873m  
    2.92000n      1.0071m    799.1871m  
    2.93000n      1.0094m    799.1886m  
    2.94000n      1.0118m    799.1900m  
    2.95000n      1.0141m    799.1915m  
    2.96000n      1.0165m    799.1929m  
    2.97000n      1.0188m    799.1944m  
    2.98000n      1.0212m    799.1958m  
    2.99000n      1.0235m    799.1973m  
    3.00000n      1.0259m    799.1987m  
    3.01000n      1.0282m    799.2002m  
    3.02000n      1.0306m    799.2016m  
    3.03000n      1.0330m    799.2031m  
    3.04000n      1.0353m    799.2045m  
    3.05000n      1.0377m    799.2060m  
    3.06000n      1.0218m    799.1962m  
    3.07000n      1.0221m    799.1963m  
    3.08000n      1.0221m    799.1963m  
    3.09000n      1.0221m    799.1963m  
    3.10000n      1.0221m    799.1963m  
    3.11000n      1.0221m    799.1963m  
[...]
    3.65000n      1.0221m    799.1963m  
    3.66000n      1.0221m    799.1963m  
    3.67000n      1.0221m    799.1963m  
    3.68000n      1.0221m    799.1963m  
    3.69000n      1.0221m    799.1963m  
    3.70000n      1.0221m    799.1963m  
    3.71000n      1.0221m    799.1963m  
    3.72000n      1.0221m    799.1963m  
    3.73000n      1.0221m    799.1963m  
    3.74000n      1.0221m    799.1963m  
    3.75000n      1.0221m    799.1963m  
    3.76000n      1.0221m    799.1963m  
    3.77000n      1.0221m    799.1963m  
    3.78000n      1.0221m    799.1963m  
    3.79000n      1.0221m    799.1963m  
    3.80000n      1.0221m    799.1963m  
    3.81000n      1.0221m    799.1963m  
    3.82000n      1.0221m    799.1963m  
    3.83000n      1.0221m    799.1963m  
    3.84000n      1.0221m    799.1963m  
    3.85000n      1.0221m    799.1963m  
    3.86000n      1.0221m    799.1963m  
    3.87000n      1.0221m    799.1963m  
    3.88000n      1.0221m    799.1963m  
    3.89000n      1.0221m    799.1963m  
    3.90000n      1.0221m    799.1963m  
    3.91000n      1.0221m    799.1963m  
    3.92000n      1.0221m    799.1963m  
    3.93000n      1.0221m    799.1963m  
    3.94000n      1.0221m    799.1963m  
    3.95000n      1.0221m    799.1963m  
    3.96000n      1.0221m    799.1963m  
    3.97000n      1.0221m    799.1963m  
    3.98000n      1.0221m    799.1963m  
    3.99000n      1.0221m    799.1963m  
    4.00000n      1.0221m    799.1963m  
y
x

        time    voltage      voltage    
                 outin_11     outin_21  
    0.          799.1963m      1.0414m  
   10.00000p    799.4152m      1.0408m  
   20.00000p    797.4833m      1.0118m  
   30.00000p    559.0047m    118.9577m  
   40.00000p      2.8885m    798.8986m  
   50.00000p    931.5968u    799.4703m  
   60.00000p      1.0146m    799.2045m  
   70.00000p      1.0702m    799.1876m  
   80.00000p      1.0306m    799.1985m  
   90.00000p      1.0221m    799.2010m  
  100.00000p      1.0337m    799.1980m  
  110.00000p      1.0453m    799.1950m  
  120.00000p      1.0569m    799.1921m  
  130.00000p      1.0649m    799.1900m  
  140.00000p      1.0609m    799.1910m  
  150.00000p      1.0569m    799.1920m  
  160.00000p      1.0528m    799.1930m  
  170.00000p      1.0488m    799.1940m  
  180.00000p      1.0447m    799.1950m  
  190.00000p      1.0407m    799.1960m  
  200.00000p      1.0366m    799.1971m  
  210.00000p      1.0326m    799.1981m  
  220.00000p      1.0285m    799.1991m  
  230.00000p      1.0245m    799.2001m  
  240.00000p      1.0204m    799.2011m  
  250.00000p      1.0164m    799.2021m  
  260.00000p      1.0189m    799.2015m  
  270.00000p      1.0213m    799.2009m  
  280.00000p      1.0237m    799.2003m  
  290.00000p      1.0262m    799.1997m  
  300.00000p      1.0286m    799.1991m  
  310.00000p      1.0311m    799.1985m  
  320.00000p      1.0335m    799.1979m  
  330.00000p      1.0360m    799.1973m  
  340.00000p      1.0384m    799.1967m  
  350.00000p      1.0408m    799.1961m  
  360.00000p      1.0433m    799.1955m  
  370.00000p      1.0457m    799.1949m  
  380.00000p      1.0482m    799.1943m  
  390.00000p      1.0506m    799.1937m  
  400.00000p      1.0531m    799.1930m  
  410.00000p      1.0555m    799.1924m  
  420.00000p      1.0579m    799.1918m  
  430.00000p      1.0604m    799.1912m  
  440.00000p      1.0628m    799.1906m  
  450.00000p      1.0652m    799.1900m  
  460.00000p      1.0628m    799.1906m  
  470.00000p      1.0604m    799.1912m  
  480.00000p      1.0580m    799.1918m  
  490.00000p      1.0556m    799.1924m  
  500.00000p      1.0531m    799.1930m  
  510.00000p      1.0507m    799.1936m  
  520.00000p      1.0483m    799.1942m  
  530.00000p      1.0459m    799.1948m  
  540.00000p      1.0435m    799.1954m  
  550.00000p      1.0410m    799.1960m  
  560.00000p      1.0386m    799.1966m  
  570.00000p      1.0362m    799.1971m  
  580.00000p      1.0338m    799.1977m  
  590.00000p      1.0314m    799.1983m  
  600.00000p      1.0289m    799.1989m  
  610.00000p      1.0265m    799.1995m  
  620.00000p      1.0241m    799.2001m  
  630.00000p      1.0217m    799.2007m  
  640.00000p      1.0193m    799.2013m  
  650.00000p      1.0169m    799.2019m  
  660.00000p      1.0193m    799.2013m  
  670.00000p      1.0217m    799.2007m  
  680.00000p      1.0241m    799.2001m  
  690.00000p      1.0265m    799.1996m  
  700.00000p      1.0289m    799.1990m  
  710.00000p      1.0313m    799.1984m  
  720.00000p      1.0337m    799.1978m  
  730.00000p      1.0361m    799.1972m  
  740.00000p      1.0385m    799.1966m  
  750.00000p      1.0409m    799.1961m  
  760.00000p      1.0432m    799.1955m  
  770.00000p      1.0456m    799.1949m  
  780.00000p      1.0480m    799.1943m  
  790.00000p      1.0504m    799.1937m  
  800.00000p      1.0528m    799.1932m  
  810.00000p      1.0552m    799.1926m  
  820.00000p      1.0576m    799.1920m  
  830.00000p      1.0600m    799.1914m  
  840.00000p      1.0624m    799.1908m  
  850.00000p      1.0648m    799.1903m  
  860.00000p      1.0624m    799.1908m  
  870.00000p      1.0600m    799.1914m  
  880.00000p      1.0577m    799.1920m  
  890.00000p      1.0553m    799.1925m  
  900.00000p      1.0529m    799.1931m  
  910.00000p      1.0505m    799.1937m  
  920.00000p      1.0482m    799.1943m  
  930.00000p      1.0458m    799.1948m  
  940.00000p      1.0434m    799.1954m  
  950.00000p      1.0410m    799.1960m  
  960.00000p      1.0387m    799.1965m  
  970.00000p      1.0363m    799.1971m  
  980.00000p      1.0339m    799.1977m  
  990.00000p      1.0315m    799.1982m  
    1.00000n      1.0292m    799.1988m  
    1.01000n      1.0268m    799.1994m  
    1.02000n      1.0244m    799.2000m  
    1.03000n      1.0220m    799.2005m  
    1.04000n      1.0197m    799.2011m  
    1.05000n      1.0173m    799.2017m  
    1.06000n      1.0411m    799.1960m  
    1.07000n      1.0409m    799.1960m  
    1.08000n      1.0409m    799.1960m  
    1.09000n      1.0409m    799.1960m  
    1.10000n      1.0409m    799.1960m  
    1.11000n      1.0409m    799.1960m  
    1.12000n      1.0409m    799.1960m  
    1.13000n      1.0409m    799.1960m  
    1.14000n      1.0409m    799.1960m  
    1.15000n      1.0409m    799.1960m  
    1.16000n      1.0409m    799.1960m  
    1.17000n      1.0409m    799.1960m  
    1.18000n      1.0409m    799.1960m  
    1.19000n      1.0409m    799.1960m  
    1.20000n      1.0409m    799.1960m  
    1.21000n      1.0409m    799.1960m  
    1.22000n      1.0409m    799.1960m  
    1.23000n      1.0409m    799.1960m  
    1.24000n      1.0409m    799.1960m  
    1.25000n      1.0409m    799.1960m  
    1.26000n      1.0409m    799.1960m  
    1.27000n      1.0409m    799.1960m  
    1.28000n      1.0409m    799.1960m  
    1.29000n      1.0409m    799.1960m  
    1.30000n      1.0409m    799.1960m  
    1.31000n      1.0409m    799.1960m  
    1.32000n      1.0409m    799.1960m  
    1.33000n      1.0409m    799.1960m  
    1.34000n      1.0409m    799.1960m  
    1.35000n      1.0409m    799.1960m  
    1.36000n      1.0409m    799.1960m  
    1.37000n      1.0409m    799.1960m  
    1.38000n      1.0409m    799.1960m  
    1.39000n      1.0409m    799.1960m  
    1.40000n      1.0409m    799.1960m  
    1.41000n      1.0409m    799.1960m  
    1.42000n      1.0409m    799.1960m  
    1.43000n      1.0409m    799.1960m  
    1.44000n      1.0409m    799.1960m  
    1.45000n      1.0409m    799.1960m  
    1.46000n      1.0409m    799.1960m  
    1.47000n      1.0409m    799.1960m  
    1.48000n      1.0409m    799.1960m  
    1.49000n      1.0409m    799.1960m  
    1.50000n      1.0409m    799.1960m  
    1.51000n      1.0409m    799.1960m  
    1.52000n      1.0409m    799.1960m  
    1.53000n      1.0409m    799.1960m  
    1.54000n      1.0409m    799.1960m  
    1.55000n      1.0409m    799.1960m  
    1.56000n      1.0409m    799.1960m  
    1.57000n      1.0409m    799.1960m  
    1.58000n      1.0409m    799.1960m  
    1.59000n      1.0409m    799.1960m  
    1.60000n      1.0409m    799.1960m  
    1.61000n      1.0409m    799.1960m  
    1.62000n      1.0409m    799.1960m  
    1.63000n      1.0409m    799.1960m  
    1.64000n      1.0409m    799.1960m  
    1.65000n      1.0409m    799.1960m  
    1.66000n      1.0409m    799.1960m  
    1.67000n      1.0409m    799.1960m  
    1.68000n      1.0409m    799.1960m  
    1.69000n      1.0409m    799.1960m  
    1.70000n      1.0409m    799.1960m  
    1.71000n      1.0409m    799.1960m  
    1.72000n      1.0409m    799.1960m  
    1.73000n      1.0409m    799.1960m  
    1.74000n      1.0409m    799.1960m  
    1.75000n      1.0409m    799.1960m  
    1.76000n      1.0409m    799.1960m  
    1.77000n      1.0409m    799.1960m  
    1.78000n      1.0409m    799.1960m  
    1.79000n      1.0409m    799.1960m  
    1.80000n      1.0409m    799.1960m  
    1.81000n      1.0409m    799.1960m  
    1.82000n      1.0409m    799.1960m  
    1.83000n      1.0409m    799.1960m  
    1.84000n      1.0409m    799.1960m  
    1.85000n      1.0409m    799.1960m  
    1.86000n      1.0409m    799.1960m  
    1.87000n      1.0409m    799.1960m  
    1.88000n      1.0409m    799.1960m  
    1.89000n      1.0409m    799.1960m  
    1.90000n      1.0409m    799.1960m  
    1.91000n      1.0409m    799.1960m  
    1.92000n      1.0409m    799.1960m  
    1.93000n      1.0409m    799.1960m  
    1.94000n      1.0409m    799.1960m  
    1.95000n      1.0409m    799.1960m  
    1.96000n      1.0409m    799.1960m  
    1.97000n      1.0409m    799.1960m  
    1.98000n      1.0409m    799.1960m  
    1.99000n      1.0409m    799.1960m  
    2.00000n      1.0409m    799.1960m  
    2.01000n      1.0409m    799.1960m  
    2.02000n      1.0409m    799.1960m  
    2.03000n      1.0409m    799.1960m  
    2.04000n      1.0409m    799.1960m  
    2.05000n      1.0409m    799.1960m  
    2.06000n    910.4958u    799.1850m  
    2.07000n     10.1549m    799.2927m  
    2.08000n    354.7233m    619.3863m  
    2.09000n    797.7848m      1.2547m  
    2.10000n    798.3020m   -856.2903u  
    2.11000n    799.2016m      1.0574m  
    2.12000n    799.1908m      1.0288m  
    2.13000n    799.2003m      1.0500m  
    2.14000n    799.2044m      1.0593m  
    2.15000n    799.2010m      1.0519m  
    2.16000n    799.1976m      1.0445m  
    2.17000n    799.1943m      1.0370m  
    2.18000n    799.1909m      1.0296m  
    2.19000n    799.1875m      1.0221m  
    2.20000n    799.1879m      1.0231m  
    2.21000n    799.1895m      1.0264m  
    2.22000n    799.1910m      1.0298m  
    2.23000n    799.1925m      1.0331m  
    2.24000n    799.1941m      1.0365m  
    2.25000n    799.1956m      1.0399m  
    2.26000n    799.1972m      1.0432m  
    2.27000n    799.1987m      1.0466m  
    2.28000n    799.2002m      1.0499m  
    2.29000n    799.2018m      1.0533m  
    2.30000n    799.2033m      1.0567m  
    2.31000n    799.2049m      1.0600m  
    2.32000n    799.2056m      1.0617m  
    2.33000n    799.2046m      1.0596m  
    2.34000n    799.2037m      1.0575m  
    2.35000n    799.2027m      1.0554m  
    2.36000n    799.2018m      1.0533m  
    2.37000n    799.2008m      1.0512m  
    2.38000n    799.1998m      1.0491m  
    2.39000n    799.1989m      1.0470m  
    2.40000n    799.1979m      1.0449m  
    2.41000n    799.1970m      1.0428m  
    2.42000n    799.1960m      1.0407m  
    2.43000n    799.1950m      1.0387m  
    2.44000n    799.1941m      1.0366m  
    2.45000n    799.1931m      1.0345m  
    2.46000n    799.1921m      1.0324m  
    2.47000n    799.1912m      1.0303m  
    2.48000n    799.1902m      1.0282m  
    2.49000n    799.1893m      1.0261m  
    2.50000n    799.1883m      1.0240m  
    2.51000n    799.1873m      1.0219m  
    2.52000n    799.1870m      1.0212m  
    2.53000n    799.1880m      1.0233m  
    2.54000n    799.1889m      1.0253m  
    2.55000n    799.1899m      1.0274m  
    2.56000n    799.1908m      1.0295m  
    2.57000n    799.1918m      1.0316m  
    2.58000n    799.1928m      1.0337m  
    2.59000n    799.1937m      1.0358m  
    2.60000n    799.1947m      1.0379m  
    2.61000n    799.1957m      1.0400m  
    2.62000n    799.1966m      1.0421m  
    2.63000n    799.1976m      1.0441m  
    2.64000n    799.1985m      1.0462m  
    2.65000n    799.1995m      1.0483m  
    2.66000n    799.2005m      1.0504m  
    2.67000n    799.2014m      1.0525m  
    2.68000n    799.2024m      1.0546m  
    2.69000n    799.2034m      1.0567m  
    2.70000n    799.2043m      1.0588m  
    2.71000n    799.2053m      1.0609m  
    2.72000n    799.2056m      1.0616m  
    2.73000n    799.2047m      1.0595m  
    2.74000n    799.2037m      1.0575m  
    2.75000n    799.2027m      1.0554m  
    2.76000n    799.2018m      1.0533m  
    2.77000n    799.2008m      1.0512m  
    2.78000n    799.1998m      1.0491m  
    2.79000n    799.1989m      1.0470m  
    2.80000n    799.1979m      1.0449m  
    2.81000n    799.1970m      1.0428m  
    2.82000n    799.1960m      1.0407m  
    2.83000n    799.1950m      1.0387m  
    2.84000n    799.1941m      1.0366m  
    2.85000n    799.1931m      1.0345m  
    2.86000n    799.1921m      1.0324m  
    2.87000n    799.1912m      1.0303m  
    2.88000n    799.1902m      1.0282m  
    2.89000n    799.1892m      1.0261m  
    2.90000n    799.1883m      1.0240m  
    2.91000n    799.1873m      1.0220m  
    2.92000n    799.1871m      1.0215m  
    2.93000n    799.1886m      1.0247m  
    2.94000n    799.1900m      1.0278m  
    2.95000n    799.1915m      1.0309m  
    2.96000n    799.1929m      1.0341m  
    2.97000n    799.1944m      1.0372m  
    2.98000n    799.1958m      1.0403m  
    2.99000n    799.1973m      1.0435m  
    3.00000n    799.1987m      1.0466m  
    3.01000n    799.2002m      1.0497m  
    3.02000n    799.2016m      1.0529m  
    3.03000n    799.2031m      1.0560m  
    3.04000n    799.2045m      1.0591m  
    3.05000n    799.2060m      1.0623m  
    3.06000n    799.1962m      1.0413m  
    3.07000n    799.1963m      1.0414m  
    3.08000n    799.1963m      1.0414m  
    3.09000n    799.1963m      1.0414m  
    3.10000n    799.1963m      1.0414m  
    3.11000n    799.1963m      1.0414m  
    3.12000n    799.1963m      1.0414m  
    3.13000n    799.1963m      1.0414m  
    3.14000n    799.1963m      1.0414m  
    3.15000n    799.1963m      1.0414m  
    3.16000n    799.1963m      1.0414m  
    3.17000n    799.1963m      1.0414m  
    3.18000n    799.1963m      1.0414m  
    3.19000n    799.1963m      1.0414m  
    3.20000n    799.1963m      1.0414m  
    3.21000n    799.1963m      1.0414m  
    3.22000n    799.1963m      1.0414m  
    3.23000n    799.1963m      1.0414m  
    3.24000n    799.1963m      1.0414m  
    3.25000n    799.1963m      1.0414m  
    3.26000n    799.1963m      1.0414m  
    3.27000n    799.1963m      1.0414m  
    3.28000n    799.1963m      1.0414m  
    3.29000n    799.1963m      1.0414m  
    3.30000n    799.1963m      1.0414m  
    3.31000n    799.1963m      1.0414m  
    3.32000n    799.1963m      1.0414m  
    3.33000n    799.1963m      1.0414m  
    3.34000n    799.1963m      1.0414m  
    3.35000n    799.1963m      1.0414m  
    3.36000n    799.1963m      1.0414m  
    3.37000n    799.1963m      1.0414m  
    3.38000n    799.1963m      1.0414m  
    3.39000n    799.1963m      1.0414m  
    3.40000n    799.1963m      1.0414m  
    3.41000n    799.1963m      1.0414m  
    3.42000n    799.1963m      1.0414m  
    3.43000n    799.1963m      1.0414m  
    3.44000n    799.1963m      1.0414m  
    3.45000n    799.1963m      1.0414m  
    3.46000n    799.1963m      1.0414m  
    3.47000n    799.1963m      1.0414m  
    3.48000n    799.1963m      1.0414m  
    3.49000n    799.1963m      1.0414m  
    3.50000n    799.1963m      1.0414m  
    3.51000n    799.1963m      1.0414m  
    3.52000n    799.1963m      1.0414m  
    3.53000n    799.1963m      1.0414m  
    3.54000n    799.1963m      1.0414m  
    3.55000n    799.1963m      1.0414m  
    3.56000n    799.1963m      1.0414m  
    3.57000n    799.1963m      1.0414m  
    3.58000n    799.1963m      1.0414m  
    3.59000n    799.1963m      1.0414m  
    3.60000n    799.1963m      1.0414m  
    3.61000n    799.1963m      1.0414m  
    3.62000n    799.1963m      1.0414m  
    3.63000n    799.1963m      1.0414m  
    3.64000n    799.1963m      1.0414m  
    3.65000n    799.1963m      1.0414m  
    3.66000n    799.1963m      1.0414m  
    3.67000n    799.1963m      1.0414m  
    3.68000n    799.1963m      1.0414m  
    3.69000n    799.1963m      1.0414m  
    3.70000n    799.1963m      1.0414m  
    3.71000n    799.1963m      1.0414m  
    3.72000n    799.1963m      1.0414m  
    3.73000n    799.1963m      1.0414m  
    3.74000n    799.1963m      1.0414m  
    3.75000n    799.1963m      1.0414m  
    3.76000n    799.1963m      1.0414m  
    3.77000n    799.1963m      1.0414m  
    3.78000n    799.1963m      1.0414m  
    3.79000n    799.1963m      1.0414m  
    3.80000n    799.1963m      1.0414m  
    3.81000n    799.1963m      1.0414m  
    3.82000n    799.1963m      1.0414m  
    3.83000n    799.1963m      1.0414m  
    3.84000n    799.1963m      1.0414m  
    3.85000n    799.1963m      1.0414m  
    3.86000n    799.1963m      1.0414m  
    3.87000n    799.1963m      1.0414m  
    3.88000n    799.1963m      1.0414m  
    3.89000n    799.1963m      1.0414m  
    3.90000n    799.1963m      1.0414m  
    3.91000n    799.1963m      1.0414m  
    3.92000n    799.1963m      1.0414m  
    3.93000n    799.1963m      1.0414m  
    3.94000n    799.1963m      1.0414m  
    3.95000n    799.1963m      1.0414m  
    3.96000n    799.1963m      1.0414m  
    3.97000n    799.1963m      1.0414m  
    3.98000n    799.1963m      1.0414m  
    3.99000n    799.1963m      1.0414m  
    4.00000n    799.1963m      1.0414m  
y

          ***** job concluded
1****** HSPICE -- F-2011.09-SP2 64-BIT (Feb 27 2012) linux ******               
 ******  
 $this uut was automatically generated by:

  ******  job statistics summary tnom=  25.000 temp=  25.000 *****
  
  
 ******  Machine Information  ******
 CPU:
 model name	: Intel(R) Xeon(R) CPU E5-2650 v4 @ 2.20GHz
 cpu MHz	: 2336.554
  
 OS:
 Linux version 3.10.0-693.17.1.el7.x86_64 (mockbuild@x86-041.build.eng.bos.redha
 t.com) (gcc version 4.8.5 20150623 (Red Hat 4.8.5-16) (GCC) ) #1 SMP Sun Jan 14
  10:36:03 EST 2018


  ******  HSPICE Threads Information  ******

  Command Line Threads Count :     1
  Available CPU Count        :    24
  Actual Threads Count       :     1


  ******  Circuit Statistics  ******
  # nodes       =      46 # elements   =      19
  # resistors   =       0 # capacitors =       0 # inductors   =       0
  # mutual_inds =       0 # vccs       =       0 # vcvs        =       0
  # cccs        =       0 # ccvs       =       0 # volt_srcs   =       3
  # curr_srcs   =       0 # diodes     =       0 # bjts        =       0
  # jfets       =       0 # mosfets    =      16 # U elements  =       0
  # T elements  =       0 # W elements =       0 # B elements  =       0
  # S elements  =       0 # P elements =       0 # va device   =       0
  # vector_srcs =       0


  ******  Runtime Statistics (seconds)  ******

  analysis           time    # points   tot. iter  conv.iter
  op point           0.01           1         118
  transient          0.06         401         922         163 rev=        12
  readin             0.00
  errchk             0.01
  setup              0.00
  output             0.00


           peak memory used        135.46 megabytes
           total cpu time            0.09 seconds
           total elapsed time        0.35 seconds
           job started at     18:26:59 09/12/2020
           job ended   at     18:26:59 09/12/2020


 lic: Release hspice token(s) 
