***** HSPICE -- F-2011.09-SP2 64-BIT (Feb 27 2012) linux ******
 Input File: ptm14lstp.sp
 lic:
 lic: FLEXlm: v10.8
 lic: USER:   iliabautista         HOSTNAME: itn3.rc.usf.edu
 lic: HOSTID:                      PID:      5103
 lic: Using FLEXlm license file:
 lic: 27000@license0.rc.usf.edu
 lic: Checkout 1 hspice
 lic: License/Maintenance for hspice will expire on 18-jul-2021/2019.06
 lic: 1(in_use)/50(total) FLOATING license(s) on SERVER license0.rc.usf.edu
 lic:
 init: begin read circuit files,  cpu clock=  2.00E-02
       option post     =     2.00
 init: end read circuit files,  cpu clock=  2.00E-02 memory=       156 kb
 init: begin check errors,  cpu clock=  2.00E-02
 **warning**  No DC path to ground from node        0:                outin_30
 init: end check errors,  cpu clock=  3.00E-02 memory=       288 kb
 init: begin setup matrix, pivot=     0 cpu clock=  3.00E-02
       establish matrix -- done,  cpu clock=  3.00E-02 memory=       317 kb
       re-order matrix -- done,  cpu clock=  3.00E-02 memory=       312 kb
 init: end setup matrix,  cpu clock=  3.00E-02 memory=       367 kb
 dcop: begin dcop,  cpu clock=  3.00E-02
 dcop: end dcop,  cpu clock=  5.00E-02 memory=       367 kb  tot_iter=     113
 output: ptm14lstp.mt0
 sweep: tran tran0    begin, stop_t=  4.00E-09 #sweeps= 401 cpu clock=  5.00E-02
 tran: time= 5.6357E-10 tot_iter=      46 conv_iter=      15 cpu clock= 5.00E-02
 tran: time= 9.6357E-10 tot_iter=      50 conv_iter=      17 cpu clock= 5.00E-02
 tran: time= 1.3126E-09 tot_iter=     156 conv_iter=      46 cpu clock= 6.00E-02
 tran: time= 1.7126E-09 tot_iter=     160 conv_iter=      48 cpu clock= 6.00E-02
 tran: time= 2.0000E-09 tot_iter=     164 conv_iter=      50 cpu clock= 6.00E-02
 tran: time= 2.5013E-09 tot_iter=     378 conv_iter=      90 cpu clock= 8.00E-02
 tran: time= 2.9013E-09 tot_iter=     382 conv_iter=      92 cpu clock= 8.00E-02
 tran: time= 3.2030E-09 tot_iter=    1111 conv_iter=     137 cpu clock= 1.30E-01
 tran: time= 3.6519E-09 tot_iter=    1479 conv_iter=     184 cpu clock= 1.60E-01
 tran: time= 4.0000E-09 tot_iter=    1483 conv_iter=     186 cpu clock= 1.60E-01
 sweep: tran tran0    end,  cpu clock=  1.60E-01 memory=       368 kb
>info:         ***** hspice job concluded
 lic: Release hspice token(s)
