 ****** HSPICE -- F-2011.09-SP2 64-BIT (Feb 27 2012) linux ******               
  Copyright (C) 2011 Synopsys, Inc. All Rights Reserved.                        
  Unpublished-rights reserved under US copyright laws.
  This program is protected by law and is subject to the
  terms and conditions of the license agreement from Synopsys.
  Use of this program is your acceptance to be bound by the
  license agreement. HSPICE is the trademark of Synopsys, Inc.
  Input File: ptm10lstp.sp                                                      
  Command line options: ptm10lstp.sp
 lic:  
 lic: FLEXlm: v10.8 
 lic: USER:   iliabautista         HOSTNAME: itn3.rc.usf.edu 
 lic: HOSTID:                      PID:      5084 
 lic: Using FLEXlm license file: 
 lic: 27000@license0.rc.usf.edu 
 lic: Checkout 1 hspice 
 lic: License/Maintenance for hspice will expire on 18-jul-2021/2019.06 
 lic: 1(in_use)/50(total) FLOATING license(s) on SERVER license0.rc.usf.edu 
 lic:   
  **warning** (../modelfiles/lstp/10nfet.pm:4) Model nfet device geometries will not be checked against the limits set by lmin, lmax, nfinmin and nfinmax. To enable this check, add a period(.) to the model name(i.e. enable model selector).
1****** HSPICE -- F-2011.09-SP2 64-BIT (Feb 27 2012) linux ******               
 ******  
 $this uut was automatically generated by:

  ******  circuit name directory
 circuit number to circuit name directory
   number circuitname                     definition         multiplier
        0 main circuit
        1 xinput_0.                       inverter           1.00 
        2 xinput_1.                       inverter           1.00 
        3 xuut_grid.                      uut_grid           1.00 
        4 xoutput_00.                     inverter           1.00 
        5 xoutput_10.                     inverter           1.00 
        6 xinput_0.xpfet.                 pfet               1.00 
        7 xinput_0.xnfet.                 nfet               1.00 
        8 xinput_1.xpfet.                 pfet               1.00 
        9 xinput_1.xnfet.                 nfet               1.00 
       10 xuut_grid.xinverter00.          inverter           1.00 
       11 xuut_grid.xinverter10.          inverter           1.00 
       12 xuut_grid.xinverter01.          inverter           1.00 
       13 xuut_grid.xinverter11.          inverter           1.00 
       14 xoutput_00.xpfet.               pfet               1.00 
       15 xoutput_00.xnfet.               nfet               1.00 
       16 xoutput_10.xpfet.               pfet               1.00 
       17 xoutput_10.xnfet.               nfet               1.00 
       18 xuut_grid.xinverter00.xpfet.    pfet               1.00 
       19 xuut_grid.xinverter00.xnfet.    nfet               1.00 
       20 xuut_grid.xinverter10.xpfet.    pfet               1.00 
       21 xuut_grid.xinverter10.xnfet.    nfet               1.00 
       22 xuut_grid.xinverter01.xpfet.    pfet               1.00 
       23 xuut_grid.xinverter01.xnfet.    nfet               1.00 
       24 xuut_grid.xinverter11.xpfet.    pfet               1.00 
       25 xuut_grid.xinverter11.xnfet.    nfet               1.00 
1****** HSPICE -- F-2011.09-SP2 64-BIT (Feb 27 2012) linux ******               
 ******  
 $this uut was automatically generated by:

  ******  mos   model parameters tnom=  25.000 temp=  25.000 *****
 Model Name: pfet 
 BSIM-MG BULK Model(Level72)
   VERSION = 105.03  
   DEVTYPE = -1 
   BULKMOD = 1  
   COREMOD = 0 
   GEOMOD = 1 
   RDSMOD = 1 
   IGCMOD = 1 
   IGBMOD = 1 
   GIDLMOD = 0 
   IIMOD = 0 
   NQSMOD = 0 
   SHMOD = 0 
   RGATEMOD = 0 
   RGEOMOD = 1 
   CGEOMOD = 2 
   CAPMOD = 0 
   LINT =      0 m
   LL =      0 m^(LLN+1)
   LLN =      1 
   DLC =      0 m
   DLBIN =      0 
   LLC =      0 m^(LLN+1)
   EOT = 8.8e-10 m
   TOXP = 1.2e-09 m
   EOTBOX = 1.4e-07 m
   HFIN = 2.1e-08 m
   FECH =      1 
   DELTAW =      0 m
   FECHCV =      1 
   DELTAWCV =      0 m
   NBODY = 2.5e+22 m^-3
   NSD =  3e+26 m^-3
   PHIG =  4.566 eV
   EPSROX =    3.9 
   EPSRSUB =   11.9 
   EASUB =   4.05 eV
   NI0SUB = 1.1e+16 m^-3
   BG0SUB =   1.12 eV
   NC0SUB = 2.86e+25 m^-3
   NGATE =      0 m^-3
   CIT = 1.3e-05 F/m^2
   CDSC =  0.024 F/m^2
   CDSCD =  0.007 F/m^2
   CDSCDR =  0.007 
   DVT0 =   0.01 
   DVT1 =   0.69 
   PHIN =   0.05 V
   ETA0 =   0.57 
   ETA0R =   0.57 
   DSUB =    0.9 
   K1RSCE =      0 V^1/2
   LPE0 =  5e-09 m
   DVTSHIFT =      0 
   QMFACTOR =      0 
   QMTCENIV =      0 
   QMTCENCV =      0 
   AQMTCEN =      0 
   BQMTCEN = 1.2e-08 
   ETAQM =   0.54 
   QM0 = 0.001143 
   PQM =   0.66 
   QM0ACC =  0.001 
   PQMACC =   0.66 
   VSAT = 1.29e+05 
   AVSAT =      0 
   BVSAT =  1e-07 
   VSAT1 = 1.29e+05 
   AVSAT1 =      0 
   BVSAT1 =  1e-07 
   DELTAVSAT =      1 
   KSATIV =    0.8 
   MEXP =      3 
   AMEXP =      0 
   BMEXP =      1 
   PTWG =      0 
   APTWG =      0 
   BPTWG =  1e-07 
   AT = -0.00156 
   TMEXP =      0 
   PTWGT =  0.004 
   U0 =  0.036 
   ETAMOB =      2 
   UP =      0 
   LPA =      1 
   UA =    0.3 
   AUA =      0 
   BUA =  1e-07 
   EU =    1.8 
   AEU =      0 
   BEU =  1e-07 
   UD =      0 
   AUD =      0 
   BUD =  5e-08 
   UCS =      0 
   UTE =      0 
   UTL = -0.0015 
   UA1 = 0.001032 
   UD1 =      0 
   UCSTE = -0.00478 
   RDSWMIN =      0 
   RDSW =    100 
   ARDSW =      0 
   BRDSW =  1e-07 
   RSWMIN =      0 
   RSW =      0 
   ARSW =      0 
   BRSW =  1e-07 
   RDWMIN =      0 
   RDW =      0 
   ARDW =      0 
   BRDW =  1e-07 
   PRWG =      0 
   WR =      1 
   PRT =  0.001 
   PDIBL1 =    1.3 
   PDIBL2 = 0.0002 
   DROUT =   1.06 
   PVAG =      1 
   PCLM =    0.2 
   APCLM =      0 
   BPCLM =  1e-07 
   PCLMG =      0 
   VASAT =    0.6 
   PCLMCV =  0.013 
   PCLMGCV =      0 
   VASATCV =    0.2 
   RGEXT =      0 ohm
   RGFIN =  0.001 ohm
   RSHS =      0 ohm
   RSHD =      0 ohm
   HEPI = 8.5e-09 m
   TSILI =  7e-09 m
   RHOC =  7e-13 ohm/m^2
   RHORSD =      1 ohm/m
   RHOEXT =      1 ohm/m
   CRATIO =    0.5 
   DELTAPRSD =      0 m
   SDTERM = 0 
   LSP = 2.8e-09 m
   LDG =  2e-09 m
   EPSRSP =    3.9 
   TGATE =  8e-09 m
   TMASK =      0 m
   ASILIEND =      0 m^2
   ARSDEND =      0 m^2
   PRSDEND =      0 m
   NSDE =  6e+25 m^-3
   RGEOA =      1 
   RGEOB =      0 m^-1
   RGEOC =      0 m^-1
   RGEOD =      0 m^-1
   RGEOE =      0 m^-1
   CGEOA =      1 
   CGEOB =      0 m^-1
   CGEOC =      0 m^-1
   CGEOD =      0 m^-1
   CGEOE =      1 
   AIGBINV = 0.0111 (Fs^2/g)^0.5m^-1
   BIGBINV =   0.03 (Fs^2/g)^0.5m^-1
   CIGBINV =  0.006 V^-1
   EIGBINV =    1.1 V
   NIGBINV =    1.2 
   AIGBACC = 0.0149 
   BIGBACC = 0.000949 
   CIGBACC =  0.075 
   NIGBACC =      3 
   AIGC = 0.0136 (Fs^2/g)^0.5m^-1
   BIGC = 0.00171 (Fs^2/g)^0.5m^-1V^-1
   CIGC =  0.075 V^-1
   NIGC =      1 
   DLCIGS =      0 m
   AIGS = 0.0136 (Fs^2/g)^0.5m^-1
   BIGS = 0.00171 (Fs^2/g)^0.5m^-1V^-1
   CIGS =  0.075 V^-1
   DLCIGD =      0 m
   AIGD = 0.0136 (Fs^2/g)^0.5m^-1
   BIGD = 0.00171 (Fs^2/g)^0.5m^-1V^-1
   CIGD =  0.075 V^-1
   POXEDGE =      1 
   AGIDL = 5.729e-12 ohm^-1
   BGIDL =  3e+08 V/m
   EGIDL =    0.1 V
   AGISL = 5.729e-12 ohm^-1
   BGISL =  3e+08 V/m
   EGISL =    0.1 V
   ALPHA0 =      0 mV^-1
   ALPHA1 =      0 V^-1
   BETA0 =     30 V^-1
   ALPHAII =      0 
   BETAII0 =      0 V^-1
   BETAII1 =      0 
   BETAII2 =    0.1 V
   ESATII =  1e+07 V/m
   LII =  5e-10 V/m
   SII0 =    0.5 V^-1
   SII1 =    0.1 
   SII2 =      0 V
   SIID =      0 V
   EOTACC = 8.8e-10 m
   DELVFBACC =      0 V
   CFS = 2.56e-11 F/m
   CFD = 2.65e-11 F/m
   COVS = 2.5e-11 F/m
   COVD = 2.5e-11 F/m
   CGSO =      0 F/m
   CGDO =      0 F/m
   CGSL =      0 F/m
   CGDL =      0 F/m
   CKAPPAS =    0.6 V
   CKAPPAD =    0.6 V
   CGBO =      0 F/m
   CGBL =      0 F/m
   CKAPPAB =    0.6 V
   CSDESW =      0 F/m
   CJS = 0.0005 F/m^2
   CJD = 0.0005 F/m^2
   CJSWS =  5e-10 F/m
   CJSWD =  5e-10 F/m
   CJSWGS =      0 F/m
   CJSWGD =      0 F/m
   PBS =      1 V
   PBD =      1 V
   PBSWS =      1 V
   PBSWD =      1 V
   PBSWGS =      1 V
   PBSWGD =      1 V
   MJS, =    0.5 
   MJD =    0.5 
   MJSWS =   0.33 
   MJSWD =   0.33 
   MJSWGS =   0.33 
   MJSWGD =   0.33 
   SJS =      0 
   SJD =      0 
   SJSWS =      0 
   SJSWD =      0 
   SJSWGS =      0 
   SJSWGD =      0 
   MJS2 =  0.125 
   MJD2 =  0.125 
   MJSWS2 =   0.33 
   MJSWD2 =   0.33 
   MJSWGS2 =   0.33 
   MJSWGD2 =   0.33 
   JSS = 0.0001 A/m^2
   JSD = 0.0001 A/m^2
   JSWS =      0 A/m
   JSWD =      0 A/m
   JSWGS =      0 A/m
   JSWGD =      0 A/m
   NJS =      1 
   NJD =      1 
   IJTHSFWD =    0.1 A
   IJTHDFWD =    0.1 A
   IJTHSREV =    0.1 A
   IJTHDREV =    0.1 A
   BVS =     10 V
   BVD =     10 V
   XJBVS =      1 
   XJBVD =      1 
   JTSS =      0 A/m^2
   JTSD =      0 A/m^2
   JTSSWS =      0 A/m
   JTSSWD =      0 A/m
   JTSSWGS =      0 A/m
   JTSSWGD =      0 A/m
   JTWEFF =      0 m
   NJTS =     20 
   NJTSD =     20 
   NJTSSW =     20 
   NJTSSWD =     20 
   NJTSSWG =     20 
   NJTSSWGD =     20 
   VTSS =     10 V
   VTSD =     10 V
   VTSSWS =     10 V
   VTSSWD =     10 V
   VTSSWGS =     10 V
   VTSSWGD =     10 V
   LINTIGEN =      0 m
   NTGEN =      1 
   AIGEN =      0 m^-3V^-1
   BIGEN =      0 m^-3V^-3
   XRCRG1 =     12 
   XRCRG2 =      1 
   NSEG = 5 
   EF =      1 
   EM = 4.1e+07 V/m
   NOIA = 6.25e+39 eV^-1s^1-EFm^-3
   NOIB = 3.125e+24 eV^-1s^1-EFm^-1
   NOIC = 8.75e+07 eV^-1s^1-EFm
   NTNOI =      1 
   TNOM =  300.1 K
   TBGASUB = 0.000702 eV/K
   TBGBSUB =   1108 K
   KT1 =      0 V
   KT1L =      0 Vm
   IIT =   -0.5 
   TII =      0 
   TGIDL = -0.0003 K^-1
   IGT =    2.5 
   TCJ =      0 K^-1
   TCJSW =      0 K^-1
   TCJSWG =      0 K^-1
   TPB =      0 K^-1
   TPBSW =      0 K^-1
   TPBSWG =      0 K^-1
   XTIS =      3 
   XTID =      3 
   XTSS =   0.02 
   XTSD =   0.02 
   XTSSWS =   0.02 
   XTSSWD =   0.02 
   XTSSWGS =   0.02 
   XTSSWGD =   0.02 
   TNJTS =      0 
   TNJTSD =      0 
   TNJTSSW =      0 
   TNJTSSWD =      0 
   TNJTSSWG =      0 
   TNJTSSWGD =      0 
   RTH0 =   0.01 ohm
   CTH0 =  1e-05 F
   WTH0 =      0 m
   LNBODY =      0 
   NNBODY =      0 
   PNBODY =      0 
   LPHIG =      0 
   NPHIG =      0 
   PPHIG =      0 
   LNGATE =      0 
   NNGATE =      0 
   PNGATE =      0 
   LCIT =      0 
   NCIT =      0 
   PCIT =      0 
   LCDSC =      0 
   NCDSC =      0 
   PCDSC =      0 
   LCDSCD =      0 
   NCDSCD =      0 
   PCDSCD =      0 
   LCDSCDR =      0 
   NCDSCDR =      0 
   PCDSCDR =      0 
   LDVT0 =      0 
   NDVT0 =      0 
   PDVT0 =      0 
   LDVT1 =      0 
   NDVT1 =      0 
   PDVT1 =      0 
   LPHIN =      0 
   NPHIN =      0 
   PPHIN =      0 
   LETA0 =      0 
   NETA0 =      0 
   PETA0 =      0 
   LETA0R =      0 
   NETA0R =      0 
   PETA0R =      0 
   LDSUB =      0 
   NDSUB =      0 
   PDSUB =      0 
   LK1RSCE =      0 
   NK1RSCE =      0 
   PK1RSCE =      0 
   LLPE0 =      0 
   NLPE0 =      0 
   PLPE0 =      0 
   LQMFACTOR =      0 
   NQMFACTOR =      0 
   PQMFACTOR =      0 
   LQMTCENIV =      0 
   NQMTCENIV =      0 
   PQMTCENIV =      0 
   LQMTCENCV =      0 
   NQMTCENCV =      0 
   PQMTCENCV =      0 
   LVSAT =      0 
   NVSAT =      0 
   PVSAT =      0 
   LKSATIV =      0 
   NKSATIV =      0 
   PKSATIV =      0 
   LMEXP =      0 
   NMEXP =      0 
   PMEXP =      0 
   LPTWG =      0 
   NPTWG =      0 
   PPTWG =      0 
   LTHETASAT =      0 
   NTHETASAT =      0 
   PTHETASAT =      0 
   LU0 =      0 
   NU0 =      0 
   PU0 =      0 
   LUP =      0 
   NUP =      0 
   PUP =      0 
   LUA =      0 
   NUA =      0 
   PUA =      0 
   LEU =      0 
   NEU =      0 
   PEU =      0 
   LUD =      0 
   NUD =      0 
   PUD =      0 
   LUCS =      0 
   NUCS =      0 
   PUCS =      0 
   LPCLM =      0 
   NPCLM =      0 
   PPCLM =      0 
   LPCLMCV =      0 
   NPCLMCV =      0 
   PPCLMCV =      0 
   LRDSW =      0 
   NRDSW =      0 
   PRDSW =      0 
   LRSW =      0 
   NRSW =      0 
   PRSW =      0 
   LRDW =      0 
   NRDW =      0 
   PRDW =      0 
   LPRWG =      0 
   NPRWG =      0 
   PPRWG =      0 
   LWR =      0 
   NWR =      0 
   PWR =      0 
   LPDIBL1 =      0 
   NPDIBL1 =      0 
   PPDIBL1 =      0 
   LPDIBL2 =      0 
   NPDIBL2 =      0 
   PPDIBL2 =      0 
   LDROUT =      0 
   NDROUT =      0 
   PDROUT =      0 
   LPVAG =      0 
   NPVAG =      0 
   PPVAG =      0 
   LAIGBINV =      0 
   NAIGBINV =      0 
   PAIGBINV =      0 
   LBIGBINV =      0 
   NBIGBINV =      0 
   PBIGBINV =      0 
   LCIGBINV =      0 
   NCIGBINV =      0 
   PCIGBINV =      0 
   LEIGBINV =      0 
   NEIGBINV =      0 
   PEIGBINV =      0 
   LNIGBINV =      0 
   NNIGBINV =      0 
   PNIGBINV =      0 
   LAIGC =      0 
   NAIGC =      0 
   PAIGC =      0 
   LBIGC =      0 
   NBIGC =      0 
   PBIGC =      0 
   LCIGC =      0 
   NCIGC =      0 
   PCIGC =      0 
   LNIGC =      0 
   NNIGC =      0 
   PNIGC =      0 
   LAIGS =      0 
   NAIGS =      0 
   PAIGS =      0 
   LBIGS =      0 
   NBIGS =      0 
   PBIGS =      0 
   LCIGS =      0 
   NCIGS =      0 
   PCIGS =      0 
   LAIGD =      0 
   NAIGD =      0 
   PAIGD =      0 
   LBIGD =      0 
   NBIGD =      0 
   PBIGD =      0 
   LCIGD =      0 
   NCIGD =      0 
   PCIGD =      0 
   LPOXEDGE =      0 
   NPOXEDGE =      0 
   PPOXEDGE =      0 
   LAGIDL =      0 
   NAGIDL =      0 
   PAGIDL =      0 
   LBGIDL =      0 
   NBGIDL =      0 
   PBGIDL =      0 
   LEGIDL =      0 
   NEGIDL =      0 
   PEGIDL =      0 
   LAGISL =      0 
   NAGISL =      0 
   PAGISL =      0 
   LBGISL =      0 
   NBGISL =      0 
   PBGISL =      0 
   LEGISL =      0 
   NEGISL =      0 
   PEGISL =      0 
   LALPHA0 =      0 
   NALPHA0 =      0 
   PALPHA0 =      0 
   LALPHA1 =      0 
   NALPHA1 =      0 
   PALPHA1 =      0 
   LBETA0 =      0 
   NBETA0 =      0 
   PBETA0 =      0 
   LALPHAII =      0 
   NALPHAII =      0 
   PALPHAII =      0 
   LBETAII0 =      0 
   NBETAII0 =      0 
   PBETAII0 =      0 
   LBETAII1 =      0 
   NBETAII1 =      0 
   PBETAII1 =      0 
   LBETAII2 =      0 
   NBETAII2 =      0 
   PBETAII2 =      0 
   LESATII =      0 
   NESATII =      0 
   PESATII =      0 
   LLII =      0 
   NLII =      0 
   PLII =      0 
   LSII0 =      0 
   NSII0 =      0 
   PSII0 =      0 
   LSII1 =      0 
   NSII1 =      0 
   PSII1 =      0 
   LSII2 =      0 
   NSII2 =      0 
   PSII2 =      0 
   LSIID =      0 
   NSIID =      0 
   PSIID =      0 
   LCFS =      0 
   NCFS =      0 
   PCFS =      0 
   LCFD =      0 
   NCFD =      0 
   PCFD =      0 
   LCOVS =      0 
   NCOVS =      0 
   PCOVS =      0 
   LCOVD =      0 
   NCOVD =      0 
   PCOVD =      0 
   LCGSL =      0 
   NCGSL =      0 
   PCGSL =      0 
   LCGDL =      0 
   NCGDL =      0 
   PCGDL =      0 
   LCKAPPAS =      0 
   NCKAPPAS =      0 
   PCKAPPAS =      0 
   LCKAPPAD =      0 
   NCKAPPAD =      0 
   PCKAPPAD =      0 
   LCGBL =      0 
   NCGBL =      0 
   PCGBL =      0 
   LCKAPPAB =      0 
   NCKAPPAB =      0 
   PCKAPPAB =      0 
   LNTGEN =      0 
   NNTGEN =      0 
   PNTGEN =      0 
   LAIGEN =      0 
   NAIGEN =      0 
   PAIGEN =      0 
   LBIGEN =      0 
   NBIGEN =      0 
   PBIGEN =      0 
   LXRCRG1 =      0 
   NXRCRG1 =      0 
   PXRCRG1 =      0 
   LXRCRG2 =      0 
   NXRCRG2 =      0 
   PXRCRG2 =      0 
   LINTNOI =      0 
   NINTNOI =      0 
   PINTNOI =      0 
   LUTE =      0 
   NUTE =      0 
   PUTE =      0 
   LUTL =      0 
   NUTL =      0 
   PUTL =      0 
   LUA1 =      0 
   NUA1 =      0 
   PUA1 =      0 
   LUD1 =      0 
   NUD1 =      0 
   PUD1 =      0 
   LUCSTE =      0 
   NUCSTE =      0 
   PUCSTE =      0 
   LPTWGT =      0 
   NPTWGT =      0 
   PPTWGT =      0 
   LAT =      0 
   NAT =      0 
   PAT =      0 
   LSTTHETASAT =      0 
   NSTTHETASAT =      0 
   PSTTHETASAT =      0 
   LPRT =      0 
   NPRT =      0 
   PPRT =      0 
   LIIT =      0 
   NIIT =      0 
   PIIT =      0 
   LTII =      0 
   NTII =      0 
   PTII =      0 
   LTGIDL =      0 
   NTGIDL =      0 
   PTGIDL =      0 
   LIGT =      0 
   NIGT =      0 
   PIGT =      0 
   L = 1.4e-08 m
   D =  4e-08 m
   TFIN =  8e-09 m
   FPITCH = 2.8e-08 m
   NF = 1 
   NFIN = 1 
   NGCON = 1 
   ASEO =      0 m^2
   ADEO =      0 m^2
   PSEO =      0 m
   PDEO =      0 m
   ASEJ =      0 m^2
   ADEJ =      0 m^2
   PSEJ =      0 m
   PDEJ =      0 m
   CGSP =      0 F
   CGDP =      0 F
   CDSP =      0 F
   NRS =      0 
   NRD =      0 
   LRSD = 1.4e-08 m
   XL =      0 m
   DELVTRAND =      0 
   U0MULT =      1 
   IDS0MULT =      1 
   Lmin =  1e-08 m
   Lmax =  3e-08 m
   NFINmin = 0 
   NFINmax = 1 
   LVSAT1 =      0 
   NVSAT1 =      0 
   PVSAT1 =      0 
   LETAMOB =      0 
   NETAMOB =      0 
   PETAMOB =      0 
   LPCLMG =      0 
   NPCLMG =      0 
   PPCLMG =      0 
   LVASAT =      0 
   NVASAT =      0 
   PVASAT =      0 
   LAIGBACC =      0 
   NAIGBACC =      0 
   PAIGBACC =      0 
   LBIGBACC =      0 
   NBIGBACC =      0 
   PBIGBACC =      0 
   LCIGBACC =      0 
   NCIGBACC =      0 
   PCIGBACC =      0 
   LNIGBACC =      0 
   NNIGBACC =      0 
   PNIGBACC =      0 
 Model Name: nfet 
 BSIM-MG BULK Model(Level72)
   VERSION = 105.03  
   DEVTYPE = 1 
   BULKMOD = 1  
   COREMOD = 0 
   GEOMOD = 1 
   RDSMOD = 1 
   IGCMOD = 1 
   IGBMOD = 1 
   GIDLMOD = 0 
   IIMOD = 0 
   NQSMOD = 0 
   SHMOD = 0 
   RGATEMOD = 0 
   RGEOMOD = 1 
   CGEOMOD = 2 
   CAPMOD = 0 
   LINT =      0 m
   LL =      0 m^(LLN+1)
   LLN =      1 
   DLC =      0 m
   DLBIN =      0 
   LLC =      0 m^(LLN+1)
   EOT = 8.8e-10 m
   TOXP = 1.2e-09 m
   EOTBOX = 1.4e-07 m
   HFIN = 2.1e-08 m
   FECH =      1 
   DELTAW =      0 m
   FECHCV =      1 
   DELTAWCV =      0 m
   NBODY = 2.5e+22 m^-3
   NSD =  3e+26 m^-3
   PHIG =  4.604 eV
   EPSROX =    3.9 
   EPSRSUB =   11.9 
   EASUB =   4.05 eV
   NI0SUB = 1.1e+16 m^-3
   BG0SUB =   1.12 eV
   NC0SUB = 2.86e+25 m^-3
   NGATE =      0 m^-3
   CIT = 1.3e-05 F/m^2
   CDSC =  0.022 F/m^2
   CDSCD =  0.007 F/m^2
   CDSCDR =  0.007 
   DVT0 =   0.01 
   DVT1 =   0.69 
   PHIN =   0.05 V
   ETA0 = 0.4079 
   ETA0R = 0.4079 
   DSUB =    0.9 
   K1RSCE =      0 V^1/2
   LPE0 =  5e-09 m
   DVTSHIFT =      0 
   QMFACTOR =      0 
   QMTCENIV =      0 
   QMTCENCV =      0 
   AQMTCEN =      0 
   BQMTCEN = 1.2e-08 
   ETAQM =   0.54 
   QM0 = 0.001143 
   PQM =   0.66 
   QM0ACC =  0.001 
   PQMACC =   0.66 
   VSAT = 1.32e+05 
   AVSAT =      0 
   BVSAT =  1e-07 
   VSAT1 = 1.32e+05 
   AVSAT1 =      0 
   BVSAT1 =  1e-07 
   DELTAVSAT =      1 
   KSATIV =    0.8 
   MEXP =      3 
   AMEXP =      0 
   BMEXP =      1 
   PTWG =      0 
   APTWG =      0 
   BPTWG =  1e-07 
   AT = -0.00156 
   TMEXP =      0 
   PTWGT =  0.004 
   U0 = 0.0568 
   ETAMOB =      2 
   UP =      0 
   LPA =      1 
   UA =    0.3 
   AUA =      0 
   BUA =  1e-07 
   EU =    1.8 
   AEU =      0 
   BEU =  1e-07 
   UD =      0 
   AUD =      0 
   BUD =  5e-08 
   UCS =      0 
   UTE =      0 
   UTL = -0.0015 
   UA1 = 0.001032 
   UD1 =      0 
   UCSTE = -0.00478 
   RDSWMIN =      0 
   RDSW =    100 
   ARDSW =      0 
   BRDSW =  1e-07 
   RSWMIN =      0 
   RSW =      0 
   ARSW =      0 
   BRSW =  1e-07 
   RDWMIN =      0 
   RDW =      0 
   ARDW =      0 
   BRDW =  1e-07 
   PRWG =      0 
   WR =      1 
   PRT =  0.001 
   PDIBL1 =    1.3 
   PDIBL2 = 0.0002 
   DROUT =   1.06 
   PVAG =      1 
   PCLM =    0.2 
   APCLM =      0 
   BPCLM =  1e-07 
   PCLMG =      0 
   VASAT =    0.6 
   PCLMCV =  0.013 
   PCLMGCV =      0 
   VASATCV =    0.2 
   RGEXT =      0 ohm
   RGFIN =  0.001 ohm
   RSHS =      0 ohm
   RSHD =      0 ohm
   HEPI = 8.5e-09 m
   TSILI =  7e-09 m
   RHOC =  6e-13 ohm/m^2
   RHORSD =      1 ohm/m
   RHOEXT =      1 ohm/m
   CRATIO =    0.5 
   DELTAPRSD =      0 m
   SDTERM = 0 
   LSP = 2.8e-09 m
   LDG =  2e-09 m
   EPSRSP =    3.9 
   TGATE =  8e-09 m
   TMASK =      0 m
   ASILIEND =      0 m^2
   ARSDEND =      0 m^2
   PRSDEND =      0 m
   NSDE =  6e+25 m^-3
   RGEOA =      1 
   RGEOB =      0 m^-1
   RGEOC =      0 m^-1
   RGEOD =      0 m^-1
   RGEOE =      0 m^-1
   CGEOA =      1 
   CGEOB =      0 m^-1
   CGEOC =      0 m^-1
   CGEOD =      0 m^-1
   CGEOE =      1 
   AIGBINV = 0.0111 (Fs^2/g)^0.5m^-1
   BIGBINV =   0.03 (Fs^2/g)^0.5m^-1
   CIGBINV =  0.006 V^-1
   EIGBINV =    1.1 V
   NIGBINV =    1.2 
   AIGBACC = 0.0149 
   BIGBACC = 0.000949 
   CIGBACC =  0.075 
   NIGBACC =      3 
   AIGC = 0.0136 (Fs^2/g)^0.5m^-1
   BIGC = 0.00171 (Fs^2/g)^0.5m^-1V^-1
   CIGC =  0.075 V^-1
   NIGC =      1 
   DLCIGS =      0 m
   AIGS = 0.0136 (Fs^2/g)^0.5m^-1
   BIGS = 0.00171 (Fs^2/g)^0.5m^-1V^-1
   CIGS =  0.075 V^-1
   DLCIGD =      0 m
   AIGD = 0.0136 (Fs^2/g)^0.5m^-1
   BIGD = 0.00171 (Fs^2/g)^0.5m^-1V^-1
   CIGD =  0.075 V^-1
   POXEDGE =      1 
   AGIDL = 5.729e-12 ohm^-1
   BGIDL =  3e+08 V/m
   EGIDL =    0.1 V
   AGISL = 5.729e-12 ohm^-1
   BGISL =  3e+08 V/m
   EGISL =    0.1 V
   ALPHA0 =      0 mV^-1
   ALPHA1 =      0 V^-1
   BETA0 =     30 V^-1
   ALPHAII =      0 
   BETAII0 =      0 V^-1
   BETAII1 =      0 
   BETAII2 =    0.1 V
   ESATII =  1e+07 V/m
   LII =  5e-10 V/m
   SII0 =    0.5 V^-1
   SII1 =    0.1 
   SII2 =      0 V
   SIID =      0 V
   EOTACC = 8.8e-10 m
   DELVFBACC =      0 V
   CFS = 2.56e-11 F/m
   CFD = 2.65e-11 F/m
   COVS = 2.5e-11 F/m
   COVD = 2.5e-11 F/m
   CGSO =      0 F/m
   CGDO =      0 F/m
   CGSL =      0 F/m
   CGDL =      0 F/m
   CKAPPAS =    0.6 V
   CKAPPAD =    0.6 V
   CGBO =      0 F/m
   CGBL =      0 F/m
   CKAPPAB =    0.6 V
   CSDESW =      0 F/m
   CJS = 0.0005 F/m^2
   CJD = 0.0005 F/m^2
   CJSWS =  5e-10 F/m
   CJSWD =  5e-10 F/m
   CJSWGS =      0 F/m
   CJSWGD =      0 F/m
   PBS =      1 V
   PBD =      1 V
   PBSWS =      1 V
   PBSWD =      1 V
   PBSWGS =      1 V
   PBSWGD =      1 V
   MJS, =    0.5 
   MJD =    0.5 
   MJSWS =   0.33 
   MJSWD =   0.33 
   MJSWGS =   0.33 
   MJSWGD =   0.33 
   SJS =      0 
   SJD =      0 
   SJSWS =      0 
   SJSWD =      0 
   SJSWGS =      0 
   SJSWGD =      0 
   MJS2 =  0.125 
   MJD2 =  0.125 
   MJSWS2 =   0.33 
   MJSWD2 =   0.33 
   MJSWGS2 =   0.33 
   MJSWGD2 =   0.33 
   JSS = 0.0001 A/m^2
   JSD = 0.0001 A/m^2
   JSWS =      0 A/m
   JSWD =      0 A/m
   JSWGS =      0 A/m
   JSWGD =      0 A/m
   NJS =      1 
   NJD =      1 
   IJTHSFWD =    0.1 A
   IJTHDFWD =    0.1 A
   IJTHSREV =    0.1 A
   IJTHDREV =    0.1 A
   BVS =     10 V
   BVD =     10 V
   XJBVS =      1 
   XJBVD =      1 
   JTSS =      0 A/m^2
   JTSD =      0 A/m^2
   JTSSWS =      0 A/m
   JTSSWD =      0 A/m
   JTSSWGS =      0 A/m
   JTSSWGD =      0 A/m
   JTWEFF =      0 m
   NJTS =     20 
   NJTSD =     20 
   NJTSSW =     20 
   NJTSSWD =     20 
   NJTSSWG =     20 
   NJTSSWGD =     20 
   VTSS =     10 V
   VTSD =     10 V
   VTSSWS =     10 V
   VTSSWD =     10 V
   VTSSWGS =     10 V
   VTSSWGD =     10 V
   LINTIGEN =      0 m
   NTGEN =      1 
   AIGEN =      0 m^-3V^-1
   BIGEN =      0 m^-3V^-3
   XRCRG1 =     12 
   XRCRG2 =      1 
   NSEG = 5 
   EF =      1 
   EM = 4.1e+07 V/m
   NOIA = 6.25e+39 eV^-1s^1-EFm^-3
   NOIB = 3.125e+24 eV^-1s^1-EFm^-1
   NOIC = 8.75e+07 eV^-1s^1-EFm
   NTNOI =      1 
   TNOM =  300.1 K
   TBGASUB = 0.000702 eV/K
   TBGBSUB =   1108 K
   KT1 =      0 V
   KT1L =      0 Vm
   IIT =   -0.5 
   TII =      0 
   TGIDL = -0.0003 K^-1
   IGT =    2.5 
   TCJ =      0 K^-1
   TCJSW =      0 K^-1
   TCJSWG =      0 K^-1
   TPB =      0 K^-1
   TPBSW =      0 K^-1
   TPBSWG =      0 K^-1
   XTIS =      3 
   XTID =      3 
   XTSS =   0.02 
   XTSD =   0.02 
   XTSSWS =   0.02 
   XTSSWD =   0.02 
   XTSSWGS =   0.02 
   XTSSWGD =   0.02 
   TNJTS =      0 
   TNJTSD =      0 
   TNJTSSW =      0 
   TNJTSSWD =      0 
   TNJTSSWG =      0 
   TNJTSSWGD =      0 
   RTH0 =   0.01 ohm
   CTH0 =  1e-05 F
   WTH0 =      0 m
   LNBODY =      0 
   NNBODY =      0 
   PNBODY =      0 
   LPHIG =      0 
   NPHIG =      0 
   PPHIG =      0 
   LNGATE =      0 
   NNGATE =      0 
   PNGATE =      0 
   LCIT =      0 
   NCIT =      0 
   PCIT =      0 
   LCDSC =      0 
   NCDSC =      0 
   PCDSC =      0 
   LCDSCD =      0 
   NCDSCD =      0 
   PCDSCD =      0 
   LCDSCDR =      0 
   NCDSCDR =      0 
   PCDSCDR =      0 
   LDVT0 =      0 
   NDVT0 =      0 
   PDVT0 =      0 
   LDVT1 =      0 
   NDVT1 =      0 
   PDVT1 =      0 
   LPHIN =      0 
   NPHIN =      0 
   PPHIN =      0 
   LETA0 =      0 
   NETA0 =      0 
   PETA0 =      0 
   LETA0R =      0 
   NETA0R =      0 
   PETA0R =      0 
   LDSUB =      0 
   NDSUB =      0 
   PDSUB =      0 
   LK1RSCE =      0 
   NK1RSCE =      0 
   PK1RSCE =      0 
   LLPE0 =      0 
   NLPE0 =      0 
   PLPE0 =      0 
   LQMFACTOR =      0 
   NQMFACTOR =      0 
   PQMFACTOR =      0 
   LQMTCENIV =      0 
   NQMTCENIV =      0 
   PQMTCENIV =      0 
   LQMTCENCV =      0 
   NQMTCENCV =      0 
   PQMTCENCV =      0 
   LVSAT =      0 
   NVSAT =      0 
   PVSAT =      0 
   LKSATIV =      0 
   NKSATIV =      0 
   PKSATIV =      0 
   LMEXP =      0 
   NMEXP =      0 
   PMEXP =      0 
   LPTWG =      0 
   NPTWG =      0 
   PPTWG =      0 
   LTHETASAT =      0 
   NTHETASAT =      0 
   PTHETASAT =      0 
   LU0 =      0 
   NU0 =      0 
   PU0 =      0 
   LUP =      0 
   NUP =      0 
   PUP =      0 
   LUA =      0 
   NUA =      0 
   PUA =      0 
   LEU =      0 
   NEU =      0 
   PEU =      0 
   LUD =      0 
   NUD =      0 
   PUD =      0 
   LUCS =      0 
   NUCS =      0 
   PUCS =      0 
   LPCLM =      0 
   NPCLM =      0 
   PPCLM =      0 
   LPCLMCV =      0 
   NPCLMCV =      0 
   PPCLMCV =      0 
   LRDSW =      0 
   NRDSW =      0 
   PRDSW =      0 
   LRSW =      0 
   NRSW =      0 
   PRSW =      0 
   LRDW =      0 
   NRDW =      0 
   PRDW =      0 
   LPRWG =      0 
   NPRWG =      0 
   PPRWG =      0 
   LWR =      0 
   NWR =      0 
   PWR =      0 
   LPDIBL1 =      0 
   NPDIBL1 =      0 
   PPDIBL1 =      0 
   LPDIBL2 =      0 
   NPDIBL2 =      0 
   PPDIBL2 =      0 
   LDROUT =      0 
   NDROUT =      0 
   PDROUT =      0 
   LPVAG =      0 
   NPVAG =      0 
   PPVAG =      0 
   LAIGBINV =      0 
   NAIGBINV =      0 
   PAIGBINV =      0 
   LBIGBINV =      0 
   NBIGBINV =      0 
   PBIGBINV =      0 
   LCIGBINV =      0 
   NCIGBINV =      0 
   PCIGBINV =      0 
   LEIGBINV =      0 
   NEIGBINV =      0 
   PEIGBINV =      0 
   LNIGBINV =      0 
   NNIGBINV =      0 
   PNIGBINV =      0 
   LAIGC =      0 
   NAIGC =      0 
   PAIGC =      0 
   LBIGC =      0 
   NBIGC =      0 
   PBIGC =      0 
   LCIGC =      0 
   NCIGC =      0 
   PCIGC =      0 
   LNIGC =      0 
   NNIGC =      0 
   PNIGC =      0 
   LAIGS =      0 
   NAIGS =      0 
   PAIGS =      0 
   LBIGS =      0 
   NBIGS =      0 
   PBIGS =      0 
   LCIGS =      0 
   NCIGS =      0 
   PCIGS =      0 
   LAIGD =      0 
   NAIGD =      0 
   PAIGD =      0 
   LBIGD =      0 
   NBIGD =      0 
   PBIGD =      0 
   LCIGD =      0 
   NCIGD =      0 
   PCIGD =      0 
   LPOXEDGE =      0 
   NPOXEDGE =      0 
   PPOXEDGE =      0 
   LAGIDL =      0 
   NAGIDL =      0 
   PAGIDL =      0 
   LBGIDL =      0 
   NBGIDL =      0 
   PBGIDL =      0 
   LEGIDL =      0 
   NEGIDL =      0 
   PEGIDL =      0 
   LAGISL =      0 
   NAGISL =      0 
   PAGISL =      0 
   LBGISL =      0 
   NBGISL =      0 
   PBGISL =      0 
   LEGISL =      0 
   NEGISL =      0 
   PEGISL =      0 
   LALPHA0 =      0 
   NALPHA0 =      0 
   PALPHA0 =      0 
   LALPHA1 =      0 
   NALPHA1 =      0 
   PALPHA1 =      0 
   LBETA0 =      0 
   NBETA0 =      0 
   PBETA0 =      0 
   LALPHAII =      0 
   NALPHAII =      0 
   PALPHAII =      0 
   LBETAII0 =      0 
   NBETAII0 =      0 
   PBETAII0 =      0 
   LBETAII1 =      0 
   NBETAII1 =      0 
   PBETAII1 =      0 
   LBETAII2 =      0 
   NBETAII2 =      0 
   PBETAII2 =      0 
   LESATII =      0 
   NESATII =      0 
   PESATII =      0 
   LLII =      0 
   NLII =      0 
   PLII =      0 
   LSII0 =      0 
   NSII0 =      0 
   PSII0 =      0 
   LSII1 =      0 
   NSII1 =      0 
   PSII1 =      0 
   LSII2 =      0 
   NSII2 =      0 
   PSII2 =      0 
   LSIID =      0 
   NSIID =      0 
   PSIID =      0 
   LCFS =      0 
   NCFS =      0 
   PCFS =      0 
   LCFD =      0 
   NCFD =      0 
   PCFD =      0 
   LCOVS =      0 
   NCOVS =      0 
   PCOVS =      0 
   LCOVD =      0 
   NCOVD =      0 
   PCOVD =      0 
   LCGSL =      0 
   NCGSL =      0 
   PCGSL =      0 
   LCGDL =      0 
   NCGDL =      0 
   PCGDL =      0 
   LCKAPPAS =      0 
   NCKAPPAS =      0 
   PCKAPPAS =      0 
   LCKAPPAD =      0 
   NCKAPPAD =      0 
   PCKAPPAD =      0 
   LCGBL =      0 
   NCGBL =      0 
   PCGBL =      0 
   LCKAPPAB =      0 
   NCKAPPAB =      0 
   PCKAPPAB =      0 
   LNTGEN =      0 
   NNTGEN =      0 
   PNTGEN =      0 
   LAIGEN =      0 
   NAIGEN =      0 
   PAIGEN =      0 
   LBIGEN =      0 
   NBIGEN =      0 
   PBIGEN =      0 
   LXRCRG1 =      0 
   NXRCRG1 =      0 
   PXRCRG1 =      0 
   LXRCRG2 =      0 
   NXRCRG2 =      0 
   PXRCRG2 =      0 
   LINTNOI =      0 
   NINTNOI =      0 
   PINTNOI =      0 
   LUTE =      0 
   NUTE =      0 
   PUTE =      0 
   LUTL =      0 
   NUTL =      0 
   PUTL =      0 
   LUA1 =      0 
   NUA1 =      0 
   PUA1 =      0 
   LUD1 =      0 
   NUD1 =      0 
   PUD1 =      0 
   LUCSTE =      0 
   NUCSTE =      0 
   PUCSTE =      0 
   LPTWGT =      0 
   NPTWGT =      0 
   PPTWGT =      0 
   LAT =      0 
   NAT =      0 
   PAT =      0 
   LSTTHETASAT =      0 
   NSTTHETASAT =      0 
   PSTTHETASAT =      0 
   LPRT =      0 
   NPRT =      0 
   PPRT =      0 
   LIIT =      0 
   NIIT =      0 
   PIIT =      0 
   LTII =      0 
   NTII =      0 
   PTII =      0 
   LTGIDL =      0 
   NTGIDL =      0 
   PTGIDL =      0 
   LIGT =      0 
   NIGT =      0 
   PIGT =      0 
   L = 1.4e-08 m
   D =  4e-08 m
   TFIN =  8e-09 m
   FPITCH = 2.8e-08 m
   NF = 1 
   NFIN = 1 
   NGCON = 1 
   ASEO =      0 m^2
   ADEO =      0 m^2
   PSEO =      0 m
   PDEO =      0 m
   ASEJ =      0 m^2
   ADEJ =      0 m^2
   PSEJ =      0 m
   PDEJ =      0 m
   CGSP =      0 F
   CGDP =      0 F
   CDSP =      0 F
   NRS =      0 
   NRD =      0 
   LRSD = 1.4e-08 m
   XL =      0 m
   DELVTRAND =      0 
   U0MULT =      1 
   IDS0MULT =      1 
   Lmin =  1e-08 m
   Lmax =  3e-08 m
   NFINmin = 0 
   NFINmax = 1 
   LVSAT1 =      0 
   NVSAT1 =      0 
   PVSAT1 =      0 
   LETAMOB =      0 
   NETAMOB =      0 
   PETAMOB =      0 
   LPCLMG =      0 
   NPCLMG =      0 
   PPCLMG =      0 
   LVASAT =      0 
   NVASAT =      0 
   PVASAT =      0 
   LAIGBACC =      0 
   NAIGBACC =      0 
   PAIGBACC =      0 
   LBIGBACC =      0 
   NBIGBACC =      0 
   PBIGBACC =      0 
   LCIGBACC =      0 
   NCIGBACC =      0 
   PCIGBACC =      0 
   LNIGBACC =      0 
   NNIGBACC =      0 
   PNIGBACC =      0 
 Model Name: pfet 
 BSIM-MG BULK Model(Level72)
   VERSION = 105.03  
   DEVTYPE = -1 
   BULKMOD = 1  
   COREMOD = 0 
   GEOMOD = 1 
   RDSMOD = 1 
   IGCMOD = 1 
   IGBMOD = 1 
   GIDLMOD = 0 
   IIMOD = 0 
   NQSMOD = 0 
   SHMOD = 0 
   RGATEMOD = 0 
   RGEOMOD = 1 
   CGEOMOD = 2 
   CAPMOD = 0 
   LINT =      0 m
   LL =      0 m^(LLN+1)
   LLN =      1 
   DLC =      0 m
   DLBIN =      0 
   LLC =      0 m^(LLN+1)
   EOT = 8.8e-10 m
   TOXP = 1.2e-09 m
   EOTBOX = 1.4e-07 m
   HFIN = 2.1e-08 m
   FECH =      1 
   DELTAW =      0 m
   FECHCV =      1 
   DELTAWCV =      0 m
   NBODY = 2.5e+22 m^-3
   NSD =  3e+26 m^-3
   PHIG =  4.566 eV
   EPSROX =    3.9 
   EPSRSUB =   11.9 
   EASUB =   4.05 eV
   NI0SUB = 1.1e+16 m^-3
   BG0SUB =   1.12 eV
   NC0SUB = 2.86e+25 m^-3
   NGATE =      0 m^-3
   CIT = 1.3e-05 F/m^2
   CDSC =  0.024 F/m^2
   CDSCD =  0.007 F/m^2
   CDSCDR =  0.007 
   DVT0 =   0.01 
   DVT1 =   0.69 
   PHIN =   0.05 V
   ETA0 =   0.57 
   ETA0R =   0.57 
   DSUB =    0.9 
   K1RSCE =      0 V^1/2
   LPE0 =  5e-09 m
   DVTSHIFT =      0 
   QMFACTOR =      0 
   QMTCENIV =      0 
   QMTCENCV =      0 
   AQMTCEN =      0 
   BQMTCEN = 1.2e-08 
   ETAQM =   0.54 
   QM0 = 0.001143 
   PQM =   0.66 
   QM0ACC =  0.001 
   PQMACC =   0.66 
   VSAT = 1.29e+05 
   AVSAT =      0 
   BVSAT =  1e-07 
   VSAT1 = 1.29e+05 
   AVSAT1 =      0 
   BVSAT1 =  1e-07 
   DELTAVSAT =      1 
   KSATIV =    0.8 
   MEXP =      3 
   AMEXP =      0 
   BMEXP =      1 
   PTWG =      0 
   APTWG =      0 
   BPTWG =  1e-07 
   AT = -0.00156 
   TMEXP =      0 
   PTWGT =  0.004 
   U0 =  0.036 
   ETAMOB =      2 
   UP =      0 
   LPA =      1 
   UA =    0.3 
   AUA =      0 
   BUA =  1e-07 
   EU =    1.8 
   AEU =      0 
   BEU =  1e-07 
   UD =      0 
   AUD =      0 
   BUD =  5e-08 
   UCS =      0 
   UTE =      0 
   UTL = -0.0015 
   UA1 = 0.001032 
   UD1 =      0 
   UCSTE = -0.00478 
   RDSWMIN =      0 
   RDSW =    100 
   ARDSW =      0 
   BRDSW =  1e-07 
   RSWMIN =      0 
   RSW =      0 
   ARSW =      0 
   BRSW =  1e-07 
   RDWMIN =      0 
   RDW =      0 
   ARDW =      0 
   BRDW =  1e-07 
   PRWG =      0 
   WR =      1 
   PRT =  0.001 
   PDIBL1 =    1.3 
   PDIBL2 = 0.0002 
   DROUT =   1.06 
   PVAG =      1 
   PCLM =    0.2 
   APCLM =      0 
   BPCLM =  1e-07 
   PCLMG =      0 
   VASAT =    0.6 
   PCLMCV =  0.013 
   PCLMGCV =      0 
   VASATCV =    0.2 
   RGEXT =      0 ohm
   RGFIN =  0.001 ohm
   RSHS =      0 ohm
   RSHD =      0 ohm
   HEPI = 8.5e-09 m
   TSILI =  7e-09 m
   RHOC =  7e-13 ohm/m^2
   RHORSD =      1 ohm/m
   RHOEXT =      1 ohm/m
   CRATIO =    0.5 
   DELTAPRSD =      0 m
   SDTERM = 0 
   LSP = 2.8e-09 m
   LDG =  2e-09 m
   EPSRSP =    3.9 
   TGATE =  8e-09 m
   TMASK =      0 m
   ASILIEND =      0 m^2
   ARSDEND =      0 m^2
   PRSDEND =      0 m
   NSDE =  6e+25 m^-3
   RGEOA =      1 
   RGEOB =      0 m^-1
   RGEOC =      0 m^-1
   RGEOD =      0 m^-1
   RGEOE =      0 m^-1
   CGEOA =      1 
   CGEOB =      0 m^-1
   CGEOC =      0 m^-1
   CGEOD =      0 m^-1
   CGEOE =      1 
   AIGBINV = 0.0111 (Fs^2/g)^0.5m^-1
   BIGBINV =   0.03 (Fs^2/g)^0.5m^-1
   CIGBINV =  0.006 V^-1
   EIGBINV =    1.1 V
   NIGBINV =    1.2 
   AIGBACC = 0.0149 
   BIGBACC = 0.000949 
   CIGBACC =  0.075 
   NIGBACC =      3 
   AIGC = 0.0136 (Fs^2/g)^0.5m^-1
   BIGC = 0.00171 (Fs^2/g)^0.5m^-1V^-1
   CIGC =  0.075 V^-1
   NIGC =      1 
   DLCIGS =      0 m
   AIGS = 0.0136 (Fs^2/g)^0.5m^-1
   BIGS = 0.00171 (Fs^2/g)^0.5m^-1V^-1
   CIGS =  0.075 V^-1
   DLCIGD =      0 m
   AIGD = 0.0136 (Fs^2/g)^0.5m^-1
   BIGD = 0.00171 (Fs^2/g)^0.5m^-1V^-1
   CIGD =  0.075 V^-1
   POXEDGE =      1 
   AGIDL = 5.729e-12 ohm^-1
   BGIDL =  3e+08 V/m
   EGIDL =    0.1 V
   AGISL = 5.729e-12 ohm^-1
   BGISL =  3e+08 V/m
   EGISL =    0.1 V
   ALPHA0 =      0 mV^-1
   ALPHA1 =      0 V^-1
   BETA0 =     30 V^-1
   ALPHAII =      0 
   BETAII0 =      0 V^-1
   BETAII1 =      0 
   BETAII2 =    0.1 V
   ESATII =  1e+07 V/m
   LII =  5e-10 V/m
   SII0 =    0.5 V^-1
   SII1 =    0.1 
   SII2 =      0 V
   SIID =      0 V
   EOTACC = 8.8e-10 m
   DELVFBACC =      0 V
   CFS = 2.56e-11 F/m
   CFD = 2.65e-11 F/m
   COVS = 2.5e-11 F/m
   COVD = 2.5e-11 F/m
   CGSO =      0 F/m
   CGDO =      0 F/m
   CGSL =      0 F/m
   CGDL =      0 F/m
   CKAPPAS =    0.6 V
   CKAPPAD =    0.6 V
   CGBO =      0 F/m
   CGBL =      0 F/m
   CKAPPAB =    0.6 V
   CSDESW =      0 F/m
   CJS = 0.0005 F/m^2
   CJD = 0.0005 F/m^2
   CJSWS =  5e-10 F/m
   CJSWD =  5e-10 F/m
   CJSWGS =      0 F/m
   CJSWGD =      0 F/m
   PBS =      1 V
   PBD =      1 V
   PBSWS =      1 V
   PBSWD =      1 V
   PBSWGS =      1 V
   PBSWGD =      1 V
   MJS, =    0.5 
   MJD =    0.5 
   MJSWS =   0.33 
   MJSWD =   0.33 
   MJSWGS =   0.33 
   MJSWGD =   0.33 
   SJS =      0 
   SJD =      0 
   SJSWS =      0 
   SJSWD =      0 
   SJSWGS =      0 
   SJSWGD =      0 
   MJS2 =  0.125 
   MJD2 =  0.125 
   MJSWS2 =   0.33 
   MJSWD2 =   0.33 
   MJSWGS2 =   0.33 
   MJSWGD2 =   0.33 
   JSS = 0.0001 A/m^2
   JSD = 0.0001 A/m^2
   JSWS =      0 A/m
   JSWD =      0 A/m
   JSWGS =      0 A/m
   JSWGD =      0 A/m
   NJS =      1 
   NJD =      1 
   IJTHSFWD =    0.1 A
   IJTHDFWD =    0.1 A
   IJTHSREV =    0.1 A
   IJTHDREV =    0.1 A
   BVS =     10 V
   BVD =     10 V
   XJBVS =      1 
   XJBVD =      1 
   JTSS =      0 A/m^2
   JTSD =      0 A/m^2
   JTSSWS =      0 A/m
   JTSSWD =      0 A/m
   JTSSWGS =      0 A/m
   JTSSWGD =      0 A/m
   JTWEFF =      0 m
   NJTS =     20 
   NJTSD =     20 
   NJTSSW =     20 
   NJTSSWD =     20 
   NJTSSWG =     20 
   NJTSSWGD =     20 
   VTSS =     10 V
   VTSD =     10 V
   VTSSWS =     10 V
   VTSSWD =     10 V
   VTSSWGS =     10 V
   VTSSWGD =     10 V
   LINTIGEN =      0 m
   NTGEN =      1 
   AIGEN =      0 m^-3V^-1
   BIGEN =      0 m^-3V^-3
   XRCRG1 =     12 
   XRCRG2 =      1 
   NSEG = 5 
   EF =      1 
   EM = 4.1e+07 V/m
   NOIA = 6.25e+39 eV^-1s^1-EFm^-3
   NOIB = 3.125e+24 eV^-1s^1-EFm^-1
   NOIC = 8.75e+07 eV^-1s^1-EFm
   NTNOI =      1 
   TNOM =  300.1 K
   TBGASUB = 0.000702 eV/K
   TBGBSUB =   1108 K
   KT1 =      0 V
   KT1L =      0 Vm
   IIT =   -0.5 
   TII =      0 
   TGIDL = -0.0003 K^-1
   IGT =    2.5 
   TCJ =      0 K^-1
   TCJSW =      0 K^-1
   TCJSWG =      0 K^-1
   TPB =      0 K^-1
   TPBSW =      0 K^-1
   TPBSWG =      0 K^-1
   XTIS =      3 
   XTID =      3 
   XTSS =   0.02 
   XTSD =   0.02 
   XTSSWS =   0.02 
   XTSSWD =   0.02 
   XTSSWGS =   0.02 
   XTSSWGD =   0.02 
   TNJTS =      0 
   TNJTSD =      0 
   TNJTSSW =      0 
   TNJTSSWD =      0 
   TNJTSSWG =      0 
   TNJTSSWGD =      0 
   RTH0 =   0.01 ohm
   CTH0 =  1e-05 F
   WTH0 =      0 m
   LNBODY =      0 
   NNBODY =      0 
   PNBODY =      0 
   LPHIG =      0 
   NPHIG =      0 
   PPHIG =      0 
   LNGATE =      0 
   NNGATE =      0 
   PNGATE =      0 
   LCIT =      0 
   NCIT =      0 
   PCIT =      0 
   LCDSC =      0 
   NCDSC =      0 
   PCDSC =      0 
   LCDSCD =      0 
   NCDSCD =      0 
   PCDSCD =      0 
   LCDSCDR =      0 
   NCDSCDR =      0 
   PCDSCDR =      0 
   LDVT0 =      0 
   NDVT0 =      0 
   PDVT0 =      0 
   LDVT1 =      0 
   NDVT1 =      0 
   PDVT1 =      0 
   LPHIN =      0 
   NPHIN =      0 
   PPHIN =      0 
   LETA0 =      0 
   NETA0 =      0 
   PETA0 =      0 
   LETA0R =      0 
   NETA0R =      0 
   PETA0R =      0 
   LDSUB =      0 
   NDSUB =      0 
   PDSUB =      0 
   LK1RSCE =      0 
   NK1RSCE =      0 
   PK1RSCE =      0 
   LLPE0 =      0 
   NLPE0 =      0 
   PLPE0 =      0 
   LQMFACTOR =      0 
   NQMFACTOR =      0 
   PQMFACTOR =      0 
   LQMTCENIV =      0 
   NQMTCENIV =      0 
   PQMTCENIV =      0 
   LQMTCENCV =      0 
   NQMTCENCV =      0 
   PQMTCENCV =      0 
   LVSAT =      0 
   NVSAT =      0 
   PVSAT =      0 
   LKSATIV =      0 
   NKSATIV =      0 
   PKSATIV =      0 
   LMEXP =      0 
   NMEXP =      0 
   PMEXP =      0 
   LPTWG =      0 
   NPTWG =      0 
   PPTWG =      0 
   LTHETASAT =      0 
   NTHETASAT =      0 
   PTHETASAT =      0 
   LU0 =      0 
   NU0 =      0 
   PU0 =      0 
   LUP =      0 
   NUP =      0 
   PUP =      0 
   LUA =      0 
   NUA =      0 
   PUA =      0 
   LEU =      0 
   NEU =      0 
   PEU =      0 
   LUD =      0 
   NUD =      0 
   PUD =      0 
   LUCS =      0 
   NUCS =      0 
   PUCS =      0 
   LPCLM =      0 
   NPCLM =      0 
   PPCLM =      0 
   LPCLMCV =      0 
   NPCLMCV =      0 
   PPCLMCV =      0 
   LRDSW =      0 
   NRDSW =      0 
   PRDSW =      0 
   LRSW =      0 
   NRSW =      0 
   PRSW =      0 
   LRDW =      0 
   NRDW =      0 
   PRDW =      0 
   LPRWG =      0 
   NPRWG =      0 
   PPRWG =      0 
   LWR =      0 
   NWR =      0 
   PWR =      0 
   LPDIBL1 =      0 
   NPDIBL1 =      0 
   PPDIBL1 =      0 
   LPDIBL2 =      0 
   NPDIBL2 =      0 
   PPDIBL2 =      0 
   LDROUT =      0 
   NDROUT =      0 
   PDROUT =      0 
   LPVAG =      0 
   NPVAG =      0 
   PPVAG =      0 
   LAIGBINV =      0 
   NAIGBINV =      0 
   PAIGBINV =      0 
   LBIGBINV =      0 
   NBIGBINV =      0 
   PBIGBINV =      0 
   LCIGBINV =      0 
   NCIGBINV =      0 
   PCIGBINV =      0 
   LEIGBINV =      0 
   NEIGBINV =      0 
   PEIGBINV =      0 
   LNIGBINV =      0 
   NNIGBINV =      0 
   PNIGBINV =      0 
   LAIGC =      0 
   NAIGC =      0 
   PAIGC =      0 
   LBIGC =      0 
   NBIGC =      0 
   PBIGC =      0 
   LCIGC =      0 
   NCIGC =      0 
   PCIGC =      0 
   LNIGC =      0 
   NNIGC =      0 
   PNIGC =      0 
   LAIGS =      0 
   NAIGS =      0 
   PAIGS =      0 
   LBIGS =      0 
   NBIGS =      0 
   PBIGS =      0 
   LCIGS =      0 
   NCIGS =      0 
   PCIGS =      0 
   LAIGD =      0 
   NAIGD =      0 
   PAIGD =      0 
   LBIGD =      0 
   NBIGD =      0 
   PBIGD =      0 
   LCIGD =      0 
   NCIGD =      0 
   PCIGD =      0 
   LPOXEDGE =      0 
   NPOXEDGE =      0 
   PPOXEDGE =      0 
   LAGIDL =      0 
   NAGIDL =      0 
   PAGIDL =      0 
   LBGIDL =      0 
   NBGIDL =      0 
   PBGIDL =      0 
   LEGIDL =      0 
   NEGIDL =      0 
   PEGIDL =      0 
   LAGISL =      0 
   NAGISL =      0 
   PAGISL =      0 
   LBGISL =      0 
   NBGISL =      0 
   PBGISL =      0 
   LEGISL =      0 
   NEGISL =      0 
   PEGISL =      0 
   LALPHA0 =      0 
   NALPHA0 =      0 
   PALPHA0 =      0 
   LALPHA1 =      0 
   NALPHA1 =      0 
   PALPHA1 =      0 
   LBETA0 =      0 
   NBETA0 =      0 
   PBETA0 =      0 
   LALPHAII =      0 
   NALPHAII =      0 
   PALPHAII =      0 
   LBETAII0 =      0 
   NBETAII0 =      0 
   PBETAII0 =      0 
   LBETAII1 =      0 
   NBETAII1 =      0 
   PBETAII1 =      0 
   LBETAII2 =      0 
   NBETAII2 =      0 
   PBETAII2 =      0 
   LESATII =      0 
   NESATII =      0 
   PESATII =      0 
   LLII =      0 
   NLII =      0 
   PLII =      0 
   LSII0 =      0 
   NSII0 =      0 
   PSII0 =      0 
   LSII1 =      0 
   NSII1 =      0 
   PSII1 =      0 
   LSII2 =      0 
   NSII2 =      0 
   PSII2 =      0 
   LSIID =      0 
   NSIID =      0 
   PSIID =      0 
   LCFS =      0 
   NCFS =      0 
   PCFS =      0 
   LCFD =      0 
   NCFD =      0 
   PCFD =      0 
   LCOVS =      0 
   NCOVS =      0 
   PCOVS =      0 
   LCOVD =      0 
   NCOVD =      0 
   PCOVD =      0 
   LCGSL =      0 
   NCGSL =      0 
   PCGSL =      0 
   LCGDL =      0 
   NCGDL =      0 
   PCGDL =      0 
   LCKAPPAS =      0 
   NCKAPPAS =      0 
   PCKAPPAS =      0 
   LCKAPPAD =      0 
   NCKAPPAD =      0 
   PCKAPPAD =      0 
   LCGBL =      0 
   NCGBL =      0 
   PCGBL =      0 
   LCKAPPAB =      0 
   NCKAPPAB =      0 
   PCKAPPAB =      0 
   LNTGEN =      0 
   NNTGEN =      0 
   PNTGEN =      0 
   LAIGEN =      0 
   NAIGEN =      0 
   PAIGEN =      0 
   LBIGEN =      0 
   NBIGEN =      0 
   PBIGEN =      0 
   LXRCRG1 =      0 
   NXRCRG1 =      0 
   PXRCRG1 =      0 
   LXRCRG2 =      0 
   NXRCRG2 =      0 
   PXRCRG2 =      0 
   LINTNOI =      0 
   NINTNOI =      0 
   PINTNOI =      0 
   LUTE =      0 
   NUTE =      0 
   PUTE =      0 
   LUTL =      0 
   NUTL =      0 
   PUTL =      0 
   LUA1 =      0 
   NUA1 =      0 
   PUA1 =      0 
   LUD1 =      0 
   NUD1 =      0 
   PUD1 =      0 
   LUCSTE =      0 
   NUCSTE =      0 
   PUCSTE =      0 
   LPTWGT =      0 
   NPTWGT =      0 
   PPTWGT =      0 
   LAT =      0 
   NAT =      0 
   PAT =      0 
   LSTTHETASAT =      0 
   NSTTHETASAT =      0 
   PSTTHETASAT =      0 
   LPRT =      0 
   NPRT =      0 
   PPRT =      0 
   LIIT =      0 
   NIIT =      0 
   PIIT =      0 
   LTII =      0 
   NTII =      0 
   PTII =      0 
   LTGIDL =      0 
   NTGIDL =      0 
   PTGIDL =      0 
   LIGT =      0 
   NIGT =      0 
   PIGT =      0 
   L = 1.4e-08 m
   D =  4e-08 m
   TFIN =  8e-09 m
   FPITCH = 2.8e-08 m
   NF = 1 
   NFIN = 1 
   NGCON = 1 
   ASEO =      0 m^2
   ADEO =      0 m^2
   PSEO =      0 m
   PDEO =      0 m
   ASEJ =      0 m^2
   ADEJ =      0 m^2
   PSEJ =      0 m
   PDEJ =      0 m
   CGSP =      0 F
   CGDP =      0 F
   CDSP =      0 F
   NRS =      0 
   NRD =      0 
   LRSD = 1.4e-08 m
   XL =      0 m
   DELVTRAND =      0 
   U0MULT =      1 
   IDS0MULT =      1 
   Lmin =  1e-08 m
   Lmax =  3e-08 m
   NFINmin = 0 
   NFINmax = 1 
   LVSAT1 =      0 
   NVSAT1 =      0 
   PVSAT1 =      0 
   LETAMOB =      0 
   NETAMOB =      0 
   PETAMOB =      0 
   LPCLMG =      0 
   NPCLMG =      0 
   PPCLMG =      0 
   LVASAT =      0 
   NVASAT =      0 
   PVASAT =      0 
   LAIGBACC =      0 
   NAIGBACC =      0 
   PAIGBACC =      0 
   LBIGBACC =      0 
   NBIGBACC =      0 
   PBIGBACC =      0 
   LCIGBACC =      0 
   NCIGBACC =      0 
   PCIGBACC =      0 
   LNIGBACC =      0 
   NNIGBACC =      0 
   PNIGBACC =      0 
 Model Name: nfet 
 BSIM-MG BULK Model(Level72)
   VERSION = 105.03  
   DEVTYPE = 1 
   BULKMOD = 1  
   COREMOD = 0 
   GEOMOD = 1 
   RDSMOD = 1 
   IGCMOD = 1 
   IGBMOD = 1 
   GIDLMOD = 0 
   IIMOD = 0 
   NQSMOD = 0 
   SHMOD = 0 
   RGATEMOD = 0 
   RGEOMOD = 1 
   CGEOMOD = 2 
   CAPMOD = 0 
   LINT =      0 m
   LL =      0 m^(LLN+1)
   LLN =      1 
   DLC =      0 m
   DLBIN =      0 
   LLC =      0 m^(LLN+1)
   EOT = 8.8e-10 m
   TOXP = 1.2e-09 m
   EOTBOX = 1.4e-07 m
   HFIN = 2.1e-08 m
   FECH =      1 
   DELTAW =      0 m
   FECHCV =      1 
   DELTAWCV =      0 m
   NBODY = 2.5e+22 m^-3
   NSD =  3e+26 m^-3
   PHIG =  4.604 eV
   EPSROX =    3.9 
   EPSRSUB =   11.9 
   EASUB =   4.05 eV
   NI0SUB = 1.1e+16 m^-3
   BG0SUB =   1.12 eV
   NC0SUB = 2.86e+25 m^-3
   NGATE =      0 m^-3
   CIT = 1.3e-05 F/m^2
   CDSC =  0.022 F/m^2
   CDSCD =  0.007 F/m^2
   CDSCDR =  0.007 
   DVT0 =   0.01 
   DVT1 =   0.69 
   PHIN =   0.05 V
   ETA0 = 0.4079 
   ETA0R = 0.4079 
   DSUB =    0.9 
   K1RSCE =      0 V^1/2
   LPE0 =  5e-09 m
   DVTSHIFT =      0 
   QMFACTOR =      0 
   QMTCENIV =      0 
   QMTCENCV =      0 
   AQMTCEN =      0 
   BQMTCEN = 1.2e-08 
   ETAQM =   0.54 
   QM0 = 0.001143 
   PQM =   0.66 
   QM0ACC =  0.001 
   PQMACC =   0.66 
   VSAT = 1.32e+05 
   AVSAT =      0 
   BVSAT =  1e-07 
   VSAT1 = 1.32e+05 
   AVSAT1 =      0 
   BVSAT1 =  1e-07 
   DELTAVSAT =      1 
   KSATIV =    0.8 
   MEXP =      3 
   AMEXP =      0 
   BMEXP =      1 
   PTWG =      0 
   APTWG =      0 
   BPTWG =  1e-07 
   AT = -0.00156 
   TMEXP =      0 
   PTWGT =  0.004 
   U0 = 0.0568 
   ETAMOB =      2 
   UP =      0 
   LPA =      1 
   UA =    0.3 
   AUA =      0 
   BUA =  1e-07 
   EU =    1.8 
   AEU =      0 
   BEU =  1e-07 
   UD =      0 
   AUD =      0 
   BUD =  5e-08 
   UCS =      0 
   UTE =      0 
   UTL = -0.0015 
   UA1 = 0.001032 
   UD1 =      0 
   UCSTE = -0.00478 
   RDSWMIN =      0 
   RDSW =    100 
   ARDSW =      0 
   BRDSW =  1e-07 
   RSWMIN =      0 
   RSW =      0 
   ARSW =      0 
   BRSW =  1e-07 
   RDWMIN =      0 
   RDW =      0 
   ARDW =      0 
   BRDW =  1e-07 
   PRWG =      0 
   WR =      1 
   PRT =  0.001 
   PDIBL1 =    1.3 
   PDIBL2 = 0.0002 
   DROUT =   1.06 
   PVAG =      1 
   PCLM =    0.2 
   APCLM =      0 
   BPCLM =  1e-07 
   PCLMG =      0 
   VASAT =    0.6 
   PCLMCV =  0.013 
   PCLMGCV =      0 
   VASATCV =    0.2 
   RGEXT =      0 ohm
   RGFIN =  0.001 ohm
   RSHS =      0 ohm
   RSHD =      0 ohm
   HEPI = 8.5e-09 m
   TSILI =  7e-09 m
   RHOC =  6e-13 ohm/m^2
   RHORSD =      1 ohm/m
   RHOEXT =      1 ohm/m
   CRATIO =    0.5 
   DELTAPRSD =      0 m
   SDTERM = 0 
   LSP = 2.8e-09 m
   LDG =  2e-09 m
   EPSRSP =    3.9 
   TGATE =  8e-09 m
   TMASK =      0 m
   ASILIEND =      0 m^2
   ARSDEND =      0 m^2
   PRSDEND =      0 m
   NSDE =  6e+25 m^-3
   RGEOA =      1 
   RGEOB =      0 m^-1
   RGEOC =      0 m^-1
   RGEOD =      0 m^-1
   RGEOE =      0 m^-1
   CGEOA =      1 
   CGEOB =      0 m^-1
   CGEOC =      0 m^-1
   CGEOD =      0 m^-1
   CGEOE =      1 
   AIGBINV = 0.0111 (Fs^2/g)^0.5m^-1
   BIGBINV =   0.03 (Fs^2/g)^0.5m^-1
   CIGBINV =  0.006 V^-1
   EIGBINV =    1.1 V
   NIGBINV =    1.2 
   AIGBACC = 0.0149 
   BIGBACC = 0.000949 
   CIGBACC =  0.075 
   NIGBACC =      3 
   AIGC = 0.0136 (Fs^2/g)^0.5m^-1
   BIGC = 0.00171 (Fs^2/g)^0.5m^-1V^-1
   CIGC =  0.075 V^-1
   NIGC =      1 
   DLCIGS =      0 m
   AIGS = 0.0136 (Fs^2/g)^0.5m^-1
   BIGS = 0.00171 (Fs^2/g)^0.5m^-1V^-1
   CIGS =  0.075 V^-1
   DLCIGD =      0 m
   AIGD = 0.0136 (Fs^2/g)^0.5m^-1
   BIGD = 0.00171 (Fs^2/g)^0.5m^-1V^-1
   CIGD =  0.075 V^-1
   POXEDGE =      1 
   AGIDL = 5.729e-12 ohm^-1
   BGIDL =  3e+08 V/m
   EGIDL =    0.1 V
   AGISL = 5.729e-12 ohm^-1
   BGISL =  3e+08 V/m
   EGISL =    0.1 V
   ALPHA0 =      0 mV^-1
   ALPHA1 =      0 V^-1
   BETA0 =     30 V^-1
   ALPHAII =      0 
   BETAII0 =      0 V^-1
   BETAII1 =      0 
   BETAII2 =    0.1 V
   ESATII =  1e+07 V/m
   LII =  5e-10 V/m
   SII0 =    0.5 V^-1
   SII1 =    0.1 
   SII2 =      0 V
   SIID =      0 V
   EOTACC = 8.8e-10 m
   DELVFBACC =      0 V
   CFS = 2.56e-11 F/m
   CFD = 2.65e-11 F/m
   COVS = 2.5e-11 F/m
   COVD = 2.5e-11 F/m
   CGSO =      0 F/m
   CGDO =      0 F/m
   CGSL =      0 F/m
   CGDL =      0 F/m
   CKAPPAS =    0.6 V
   CKAPPAD =    0.6 V
   CGBO =      0 F/m
   CGBL =      0 F/m
   CKAPPAB =    0.6 V
   CSDESW =      0 F/m
   CJS = 0.0005 F/m^2
   CJD = 0.0005 F/m^2
   CJSWS =  5e-10 F/m
   CJSWD =  5e-10 F/m
   CJSWGS =      0 F/m
   CJSWGD =      0 F/m
   PBS =      1 V
   PBD =      1 V
   PBSWS =      1 V
   PBSWD =      1 V
   PBSWGS =      1 V
   PBSWGD =      1 V
   MJS, =    0.5 
   MJD =    0.5 
   MJSWS =   0.33 
   MJSWD =   0.33 
   MJSWGS =   0.33 
   MJSWGD =   0.33 
   SJS =      0 
   SJD =      0 
   SJSWS =      0 
   SJSWD =      0 
   SJSWGS =      0 
   SJSWGD =      0 
   MJS2 =  0.125 
   MJD2 =  0.125 
   MJSWS2 =   0.33 
   MJSWD2 =   0.33 
   MJSWGS2 =   0.33 
   MJSWGD2 =   0.33 
   JSS = 0.0001 A/m^2
   JSD = 0.0001 A/m^2
   JSWS =      0 A/m
   JSWD =      0 A/m
   JSWGS =      0 A/m
   JSWGD =      0 A/m
   NJS =      1 
   NJD =      1 
   IJTHSFWD =    0.1 A
   IJTHDFWD =    0.1 A
   IJTHSREV =    0.1 A
   IJTHDREV =    0.1 A
   BVS =     10 V
   BVD =     10 V
   XJBVS =      1 
   XJBVD =      1 
   JTSS =      0 A/m^2
   JTSD =      0 A/m^2
   JTSSWS =      0 A/m
   JTSSWD =      0 A/m
   JTSSWGS =      0 A/m
   JTSSWGD =      0 A/m
   JTWEFF =      0 m
   NJTS =     20 
   NJTSD =     20 
   NJTSSW =     20 
   NJTSSWD =     20 
   NJTSSWG =     20 
   NJTSSWGD =     20 
   VTSS =     10 V
   VTSD =     10 V
   VTSSWS =     10 V
   VTSSWD =     10 V
   VTSSWGS =     10 V
   VTSSWGD =     10 V
   LINTIGEN =      0 m
   NTGEN =      1 
   AIGEN =      0 m^-3V^-1
   BIGEN =      0 m^-3V^-3
   XRCRG1 =     12 
   XRCRG2 =      1 
   NSEG = 5 
   EF =      1 
   EM = 4.1e+07 V/m
   NOIA = 6.25e+39 eV^-1s^1-EFm^-3
   NOIB = 3.125e+24 eV^-1s^1-EFm^-1
   NOIC = 8.75e+07 eV^-1s^1-EFm
   NTNOI =      1 
   TNOM =  300.1 K
   TBGASUB = 0.000702 eV/K
   TBGBSUB =   1108 K
   KT1 =      0 V
   KT1L =      0 Vm
   IIT =   -0.5 
   TII =      0 
   TGIDL = -0.0003 K^-1
   IGT =    2.5 
   TCJ =      0 K^-1
   TCJSW =      0 K^-1
   TCJSWG =      0 K^-1
   TPB =      0 K^-1
   TPBSW =      0 K^-1
   TPBSWG =      0 K^-1
   XTIS =      3 
   XTID =      3 
   XTSS =   0.02 
   XTSD =   0.02 
   XTSSWS =   0.02 
   XTSSWD =   0.02 
   XTSSWGS =   0.02 
   XTSSWGD =   0.02 
   TNJTS =      0 
   TNJTSD =      0 
   TNJTSSW =      0 
   TNJTSSWD =      0 
   TNJTSSWG =      0 
   TNJTSSWGD =      0 
   RTH0 =   0.01 ohm
   CTH0 =  1e-05 F
   WTH0 =      0 m
   LNBODY =      0 
   NNBODY =      0 
   PNBODY =      0 
   LPHIG =      0 
   NPHIG =      0 
   PPHIG =      0 
   LNGATE =      0 
   NNGATE =      0 
   PNGATE =      0 
   LCIT =      0 
   NCIT =      0 
   PCIT =      0 
   LCDSC =      0 
   NCDSC =      0 
   PCDSC =      0 
   LCDSCD =      0 
   NCDSCD =      0 
   PCDSCD =      0 
   LCDSCDR =      0 
   NCDSCDR =      0 
   PCDSCDR =      0 
   LDVT0 =      0 
   NDVT0 =      0 
   PDVT0 =      0 
   LDVT1 =      0 
   NDVT1 =      0 
   PDVT1 =      0 
   LPHIN =      0 
   NPHIN =      0 
   PPHIN =      0 
   LETA0 =      0 
   NETA0 =      0 
   PETA0 =      0 
   LETA0R =      0 
   NETA0R =      0 
   PETA0R =      0 
   LDSUB =      0 
   NDSUB =      0 
   PDSUB =      0 
   LK1RSCE =      0 
   NK1RSCE =      0 
   PK1RSCE =      0 
   LLPE0 =      0 
   NLPE0 =      0 
   PLPE0 =      0 
   LQMFACTOR =      0 
   NQMFACTOR =      0 
   PQMFACTOR =      0 
   LQMTCENIV =      0 
   NQMTCENIV =      0 
   PQMTCENIV =      0 
   LQMTCENCV =      0 
   NQMTCENCV =      0 
   PQMTCENCV =      0 
   LVSAT =      0 
   NVSAT =      0 
   PVSAT =      0 
   LKSATIV =      0 
   NKSATIV =      0 
   PKSATIV =      0 
   LMEXP =      0 
   NMEXP =      0 
   PMEXP =      0 
   LPTWG =      0 
   NPTWG =      0 
   PPTWG =      0 
   LTHETASAT =      0 
   NTHETASAT =      0 
   PTHETASAT =      0 
   LU0 =      0 
   NU0 =      0 
   PU0 =      0 
   LUP =      0 
   NUP =      0 
   PUP =      0 
   LUA =      0 
   NUA =      0 
   PUA =      0 
   LEU =      0 
   NEU =      0 
   PEU =      0 
   LUD =      0 
   NUD =      0 
   PUD =      0 
   LUCS =      0 
   NUCS =      0 
   PUCS =      0 
   LPCLM =      0 
   NPCLM =      0 
   PPCLM =      0 
   LPCLMCV =      0 
   NPCLMCV =      0 
   PPCLMCV =      0 
   LRDSW =      0 
   NRDSW =      0 
   PRDSW =      0 
   LRSW =      0 
   NRSW =      0 
   PRSW =      0 
   LRDW =      0 
   NRDW =      0 
   PRDW =      0 
   LPRWG =      0 
   NPRWG =      0 
   PPRWG =      0 
   LWR =      0 
   NWR =      0 
   PWR =      0 
   LPDIBL1 =      0 
   NPDIBL1 =      0 
   PPDIBL1 =      0 
   LPDIBL2 =      0 
   NPDIBL2 =      0 
   PPDIBL2 =      0 
   LDROUT =      0 
   NDROUT =      0 
   PDROUT =      0 
   LPVAG =      0 
   NPVAG =      0 
   PPVAG =      0 
   LAIGBINV =      0 
   NAIGBINV =      0 
   PAIGBINV =      0 
   LBIGBINV =      0 
   NBIGBINV =      0 
   PBIGBINV =      0 
   LCIGBINV =      0 
   NCIGBINV =      0 
   PCIGBINV =      0 
   LEIGBINV =      0 
   NEIGBINV =      0 
   PEIGBINV =      0 
   LNIGBINV =      0 
   NNIGBINV =      0 
   PNIGBINV =      0 
   LAIGC =      0 
   NAIGC =      0 
   PAIGC =      0 
   LBIGC =      0 
   NBIGC =      0 
   PBIGC =      0 
   LCIGC =      0 
   NCIGC =      0 
   PCIGC =      0 
   LNIGC =      0 
   NNIGC =      0 
   PNIGC =      0 
   LAIGS =      0 
   NAIGS =      0 
   PAIGS =      0 
   LBIGS =      0 
   NBIGS =      0 
   PBIGS =      0 
   LCIGS =      0 
   NCIGS =      0 
   PCIGS =      0 
   LAIGD =      0 
   NAIGD =      0 
   PAIGD =      0 
   LBIGD =      0 
   NBIGD =      0 
   PBIGD =      0 
   LCIGD =      0 
   NCIGD =      0 
   PCIGD =      0 
   LPOXEDGE =      0 
   NPOXEDGE =      0 
   PPOXEDGE =      0 
   LAGIDL =      0 
   NAGIDL =      0 
   PAGIDL =      0 
   LBGIDL =      0 
   NBGIDL =      0 
   PBGIDL =      0 
   LEGIDL =      0 
   NEGIDL =      0 
   PEGIDL =      0 
   LAGISL =      0 
   NAGISL =      0 
   PAGISL =      0 
   LBGISL =      0 
   NBGISL =      0 
   PBGISL =      0 
   LEGISL =      0 
   NEGISL =      0 
   PEGISL =      0 
   LALPHA0 =      0 
   NALPHA0 =      0 
   PALPHA0 =      0 
   LALPHA1 =      0 
   NALPHA1 =      0 
   PALPHA1 =      0 
   LBETA0 =      0 
   NBETA0 =      0 
   PBETA0 =      0 
   LALPHAII =      0 
   NALPHAII =      0 
   PALPHAII =      0 
   LBETAII0 =      0 
   NBETAII0 =      0 
   PBETAII0 =      0 
   LBETAII1 =      0 
   NBETAII1 =      0 
   PBETAII1 =      0 
   LBETAII2 =      0 
   NBETAII2 =      0 
   PBETAII2 =      0 
   LESATII =      0 
   NESATII =      0 
   PESATII =      0 
   LLII =      0 
   NLII =      0 
   PLII =      0 
   LSII0 =      0 
   NSII0 =      0 
   PSII0 =      0 
   LSII1 =      0 
   NSII1 =      0 
   PSII1 =      0 
   LSII2 =      0 
   NSII2 =      0 
   PSII2 =      0 
   LSIID =      0 
   NSIID =      0 
   PSIID =      0 
   LCFS =      0 
   NCFS =      0 
   PCFS =      0 
   LCFD =      0 
   NCFD =      0 
   PCFD =      0 
   LCOVS =      0 
   NCOVS =      0 
   PCOVS =      0 
   LCOVD =      0 
   NCOVD =      0 
   PCOVD =      0 
   LCGSL =      0 
   NCGSL =      0 
   PCGSL =      0 
   LCGDL =      0 
   NCGDL =      0 
   PCGDL =      0 
   LCKAPPAS =      0 
   NCKAPPAS =      0 
   PCKAPPAS =      0 
   LCKAPPAD =      0 
   NCKAPPAD =      0 
   PCKAPPAD =      0 
   LCGBL =      0 
   NCGBL =      0 
   PCGBL =      0 
   LCKAPPAB =      0 
   NCKAPPAB =      0 
   PCKAPPAB =      0 
   LNTGEN =      0 
   NNTGEN =      0 
   PNTGEN =      0 
   LAIGEN =      0 
   NAIGEN =      0 
   PAIGEN =      0 
   LBIGEN =      0 
   NBIGEN =      0 
   PBIGEN =      0 
   LXRCRG1 =      0 
   NXRCRG1 =      0 
   PXRCRG1 =      0 
   LXRCRG2 =      0 
   NXRCRG2 =      0 
   PXRCRG2 =      0 
   LINTNOI =      0 
   NINTNOI =      0 
   PINTNOI =      0 
   LUTE =      0 
   NUTE =      0 
   PUTE =      0 
   LUTL =      0 
   NUTL =      0 
   PUTL =      0 
   LUA1 =      0 
   NUA1 =      0 
   PUA1 =      0 
   LUD1 =      0 
   NUD1 =      0 
   PUD1 =      0 
   LUCSTE =      0 
   NUCSTE =      0 
   PUCSTE =      0 
   LPTWGT =      0 
   NPTWGT =      0 
   PPTWGT =      0 
   LAT =      0 
   NAT =      0 
   PAT =      0 
   LSTTHETASAT =      0 
   NSTTHETASAT =      0 
   PSTTHETASAT =      0 
   LPRT =      0 
   NPRT =      0 
   PPRT =      0 
   LIIT =      0 
   NIIT =      0 
   PIIT =      0 
   LTII =      0 
   NTII =      0 
   PTII =      0 
   LTGIDL =      0 
   NTGIDL =      0 
   PTGIDL =      0 
   LIGT =      0 
   NIGT =      0 
   PIGT =      0 
   L = 1.4e-08 m
   D =  4e-08 m
   TFIN =  8e-09 m
   FPITCH = 2.8e-08 m
   NF = 1 
   NFIN = 1 
   NGCON = 1 
   ASEO =      0 m^2
   ADEO =      0 m^2
   PSEO =      0 m
   PDEO =      0 m
   ASEJ =      0 m^2
   ADEJ =      0 m^2
   PSEJ =      0 m
   PDEJ =      0 m
   CGSP =      0 F
   CGDP =      0 F
   CDSP =      0 F
   NRS =      0 
   NRD =      0 
   LRSD = 1.4e-08 m
   XL =      0 m
   DELVTRAND =      0 
   U0MULT =      1 
   IDS0MULT =      1 
   Lmin =  1e-08 m
   Lmax =  3e-08 m
   NFINmin = 0 
   NFINmax = 1 
   LVSAT1 =      0 
   NVSAT1 =      0 
   PVSAT1 =      0 
   LETAMOB =      0 
   NETAMOB =      0 
   PETAMOB =      0 
   LPCLMG =      0 
   NPCLMG =      0 
   PPCLMG =      0 
   LVASAT =      0 
   NVASAT =      0 
   PVASAT =      0 
   LAIGBACC =      0 
   NAIGBACC =      0 
   PAIGBACC =      0 
   LBIGBACC =      0 
   NBIGBACC =      0 
   PBIGBACC =      0 
   LCIGBACC =      0 
   NCIGBACC =      0 
   PCIGBACC =      0 
   LNIGBACC =      0 
   NNIGBACC =      0 
   PNIGBACC =      0 
  **info** (ptm10lstp.sp:8) DC voltage reset to initial transient source value              in source        0:vin_0               new dc=  0.7500D+00
  
 **warning**  No DC path to ground from node        0:outin_30         defined in subckt 0               ; Connected by HSPICE with gdcpath


      
 **info** set option symb=1 internally to help for convergence.
 *****************************************************************
 ******  option summary
 ******
 runlvl  = 3         bypass  = 2         
  Opening plot unit= 15
 file=ptm10lstp.pa0                                                            

1****** HSPICE -- F-2011.09-SP2 64-BIT (Feb 27 2012) linux ******               
 ******  
 $this uut was automatically generated by:

  ******  operating point information tnom=  25.000 temp=  25.000 *****
 ***** operating point status is voltage   simulation time is     0.     
     node    =voltage       node    =voltage       node    =voltage

 + 0:inb_0   = 750.0000m  0:inb_1   = 750.0000m  0:outb_00 = 749.9968m
 + 0:outb_10 = 749.9968m  0:outin_00=   3.2808u  0:outin_01=   3.2808u
 + 0:outin_10= 749.9974m  0:outin_11= 749.9974m  0:outin_20=   3.2810u
 + 0:outin_21=   3.2810u  0:outin_30=   8.1742m  0:outin_31=   8.1742m
 + 0:vdd     = 750.0000m

 ******  
 $this uut was automatically generated by:

  ******  transient analysis tnom=  25.000 temp=  25.000 *****
 inv_avg_power00=   2.4833u  from=   0.          to=   4.0000n
 peakpower00=   1.2375m    at=   3.0970n
             from=   0.         to=   4.0000n
 inv_avg_power10=  31.8015n  from=   0.          to=   4.0000n
 peakpower10=   9.1408u    at=   3.0859n
             from=   0.         to=   4.0000n
 inv_avg_power01=  33.6617n  from=   0.          to=   4.0000n
 peakpower01=   9.2246u    at=  32.7966p
             from=   0.         to=   4.0000n
 inv_avg_power11=  15.4991n  from=   0.          to=   4.0000n
 peakpower11=   7.6355u    at=  36.2175p
             from=   0.         to=   4.0000n
 uut_grid_avg_power=   2.5643u  from=   0.          to=   4.0000n
 uut_grid_max_power=   1.2375m    at=   3.0970n
             from=   0.         to=   4.0000n
 source_power=   2.6728u  from=   0.          to=   4.0000n
 trf_delay_001=   4.6668p  targ=  36.4948p   trig=  31.8280p
 tfr_delay_001=   2.3715p  targ=   1.0847n   trig=   1.0824n
 trf_delay_002=   4.1773p  targ=   2.0365n   trig=   2.0324n
 tfr_delay_002=   4.6888p  targ=   3.0851n   trig=   3.0804n
 trf_delay_101=   2.4802p  targ=   1.0872n   trig=   1.0847n
 tfr_delay_101=   1.8413p  targ=  38.3361p   trig=  36.4948p
 trf_delay_102=   2.1039p  targ=   3.0872n   trig=   3.0851n
 tfr_delay_102=   2.2538p  targ=   2.0388n   trig=   2.0365n
 trf_delay_011=   4.6668p  targ=  36.4948p   trig=  31.8280p
 tfr_delay_011=   2.7669p  targ=   2.0829n   trig=   2.0801n
 trf_delay_111=   1.4631p  targ=   2.0843n   trig=   2.0829n
 tfr_delay_111=   1.8413p  targ=  38.3361p   trig=  36.4948p
x

        time    voltage      voltage    
                 outin_00     outin_10  
    0.            3.2808u    749.9974m  
   10.00000p     -2.2270m    750.0252m  
   20.00000p     24.3281m    750.8419m  
   30.00000p    296.2747m    754.8840m  
   40.00000p    718.6732m     55.8374m  
   50.00000p    746.6530m     -1.0129m  
   60.00000p    749.9891m     28.4033u  
   70.00000p    750.0000m    -15.0714u  
   80.00000p    749.9962m     27.3585u  
   90.00000p    749.9957m     27.5194u  
  100.00000p    749.9967m      7.8721u  
  110.00000p    749.9977m    -11.7753u  
  120.00000p    749.9988m    -31.4226u  
  130.00000p    749.9986m    -25.6233u  
  140.00000p    749.9983m    -16.5942u  
  150.00000p    749.9980m     -7.5651u  
  160.00000p    749.9976m      1.4641u  
  170.00000p    749.9973m     10.4932u  
  180.00000p    749.9970m     19.5223u  
  190.00000p    749.9967m     28.5514u  
  200.00000p    749.9963m     37.5805u  
  210.00000p    749.9964m     36.6319u  
  220.00000p    749.9965m     32.2626u  
  230.00000p    749.9966m     27.8934u  
  240.00000p    749.9967m     23.5242u  
  250.00000p    749.9968m     19.1549u  
  260.00000p    749.9970m     14.7857u  
  270.00000p    749.9971m     10.4165u  
  280.00000p    749.9972m      6.0472u  
  290.00000p    749.9973m      1.6780u  
  300.00000p    749.9975m     -2.6912u  
  310.00000p    749.9976m     -7.0605u  
  320.00000p    749.9977m    -11.4297u  
  330.00000p    749.9978m    -15.7989u  
  340.00000p    749.9979m    -20.1682u  
  350.00000p    749.9981m    -24.5374u  
  360.00000p    749.9982m    -28.9066u  
  370.00000p    749.9983m    -33.0893u  
  380.00000p    749.9982m    -29.4493u  
  390.00000p    749.9981m    -25.8093u  
  400.00000p    749.9981m    -22.1694u  
  410.00000p    749.9980m    -18.5294u  
  420.00000p    749.9979m    -14.8894u  
  430.00000p    749.9978m    -11.2494u  
  440.00000p    749.9977m     -7.6094u  
  450.00000p    749.9976m     -3.9695u  
  460.00000p    749.9975m      0.       
  470.00000p    749.9975m      3.3105u  
  480.00000p    749.9974m      6.9505u  
  490.00000p    749.9973m     10.5904u  
  500.00000p    749.9972m     14.2304u  
  510.00000p    749.9971m     17.8704u  
  520.00000p    749.9970m     21.5104u  
  530.00000p    749.9969m     25.1504u  
  540.00000p    749.9969m     28.7903u  
  550.00000p    749.9968m     32.4303u  
  560.00000p    749.9967m     36.0703u  
  570.00000p    749.9966m     39.5410u  
  580.00000p    749.9967m     35.9139u  
  590.00000p    749.9967m     32.2868u  
  600.00000p    749.9968m     28.6597u  
  610.00000p    749.9969m     25.0327u  
  620.00000p    749.9970m     21.4056u  
  630.00000p    749.9970m     17.7785u  
  640.00000p    749.9971m     14.1514u  
  650.00000p    749.9972m     10.5243u  
  660.00000p    749.9972m      6.8973u  
  670.00000p    749.9973m      3.2702u  
  680.00000p    749.9974m      0.       
  690.00000p    749.9974m     -3.9840u  
  700.00000p    749.9975m     -7.6110u  
  710.00000p    749.9976m    -11.2381u  
  720.00000p    749.9977m    -14.8652u  
  730.00000p    749.9977m    -18.4923u  
  740.00000p    749.9978m    -22.1193u  
  750.00000p    749.9979m    -25.7464u  
  760.00000p    749.9979m    -29.3735u  
  770.00000p    749.9980m    -32.8319u  
  780.00000p    749.9980m    -29.2169u  
  790.00000p    749.9979m    -25.6019u  
  800.00000p    749.9978m    -21.9869u  
  810.00000p    749.9978m    -18.3720u  
  820.00000p    749.9977m    -14.7570u  
  830.00000p    749.9977m    -11.1420u  
  840.00000p    749.9976m     -7.5270u  
  850.00000p    749.9976m     -3.9121u  
  860.00000p    749.9975m      0.       
  870.00000p    749.9974m      3.3179u  
  880.00000p    749.9974m      6.9329u  
  890.00000p    749.9973m     10.5479u  
  900.00000p    749.9973m     14.1628u  
  910.00000p    749.9972m     17.7778u  
  920.00000p    749.9972m     21.3928u  
  930.00000p    749.9971m     25.0078u  
  940.00000p    749.9971m     28.6227u  
  950.00000p    749.9970m     32.2377u  
  960.00000p    749.9969m     35.8527u  
  970.00000p    749.9969m     39.1747u  
  980.00000p    749.9970m     30.2152u  
  990.00000p    749.9970m     21.2557u  
    1.00000n    749.9971m     12.2962u  
    1.01000n    749.9972m      3.3367u  
    1.02000n    749.9973m     -5.6229u  
    1.03000n    749.9974m    -14.5824u  
    1.04000n    749.9974m    -23.5419u  
    1.05000n    749.9975m    -32.5014u  
    1.06000n    753.2015m     -8.9596u  
    1.07000n    734.6646m   -470.3905u  
    1.08000n    485.6284m    194.8743m  
    1.09000n     79.3484m    602.3439m  
    1.10000n   -342.7891u    749.1091m  
    1.11000n    702.7957n    749.9745m  
    1.12000n      7.5337u    750.0286m  
    1.13000n      4.0712u    750.0051m  
    1.14000n      0.         749.9786m  
    1.15000n   -887.0019n    749.9701m  
    1.16000n    705.4095n    749.9802m  
    1.17000n      2.2978u    749.9903m  
    1.18000n      3.8902u    750.0005m  
    1.19000n      5.4826u    750.0106m  
    1.20000n      7.0751u    750.0207m  
    1.21000n      8.2637u    750.0283m  
    1.22000n      7.4846u    750.0235m  
    1.23000n      6.7055u    750.0187m  
    1.24000n      5.9264u    750.0140m  
    1.25000n      5.1473u    750.0092m  
    1.26000n      4.3682u    750.0044m  
    1.27000n      3.5891u    749.9996m  
    1.28000n      2.8100u    749.9948m  
    1.29000n      2.0309u    749.9900m  
    1.30000n      1.2518u    749.9853m  
    1.31000n      0.         749.9805m  
    1.32000n      0.         749.9757m  
    1.33000n     -1.0856u    749.9709m  
    1.34000n     -1.8647u    749.9661m  
    1.35000n     -1.4135u    749.9688m  
    1.36000n   -892.3059n    749.9720m  
    1.37000n      0.         749.9751m  
    1.38000n      0.         749.9783m  
    1.39000n    671.3217n    749.9814m  
    1.40000n      1.1925u    749.9845m  
    1.41000n      1.7137u    749.9877m  
    1.42000n      2.2349u    749.9908m  
    1.43000n      2.7562u    749.9940m  
    1.44000n      3.2774u    749.9971m  
    1.45000n      3.7986u    750.0003m  
    1.46000n      4.3198u    750.0034m  
    1.47000n      4.8410u    750.0066m  
    1.48000n      5.3622u    750.0097m  
    1.49000n      5.8834u    750.0128m  
    1.50000n      6.4046u    750.0160m  
    1.51000n      6.9258u    750.0191m  
    1.52000n      7.4470u    750.0223m  
    1.53000n      7.9683u    750.0254m  
    1.54000n      8.4895u    750.0286m  
    1.55000n      8.0200u    750.0258m  
    1.56000n      7.4941u    750.0226m  
    1.57000n      6.9681u    750.0195m  
    1.58000n      6.4422u    750.0164m  
    1.59000n      5.9163u    750.0133m  
    1.60000n      5.3904u    750.0101m  
    1.61000n      4.8645u    750.0070m  
    1.62000n      4.3386u    750.0039m  
    1.63000n      3.8127u    750.0007m  
    1.64000n      3.2868u    749.9976m  
    1.65000n      2.7609u    749.9945m  
    1.66000n      2.2350u    749.9914m  
    1.67000n      1.7091u    749.9882m  
    1.68000n      1.1831u    749.9851m  
    1.69000n    657.2395n    749.9820m  
    1.70000n      0.         749.9788m  
    1.71000n      0.         749.9757m  
    1.72000n   -920.4876n    749.9726m  
    1.73000n     -1.4464u    749.9695m  
    1.74000n     -1.9723u    749.9663m  
    1.75000n     -1.4987u    749.9691m  
    1.76000n   -968.1949n    749.9722m  
    1.77000n      0.         749.9753m  
    1.78000n      0.         749.9784m  
    1.79000n    623.3462n    749.9816m  
    1.80000n      1.1539u    749.9847m  
    1.81000n      1.6844u    749.9878m  
    1.82000n      2.2149u    749.9909m  
    1.83000n      2.7454u    749.9940m  
    1.84000n      3.2759u    749.9971m  
    1.85000n      3.8064u    750.0002m  
    1.86000n      4.3369u    750.0034m  
    1.87000n      4.8675u    750.0065m  
    1.88000n      5.3980u    750.0096m  
    1.89000n      5.9285u    750.0127m  
    1.90000n      6.4590u    750.0158m  
    1.91000n      6.9895u    750.0189m  
    1.92000n      7.5200u    750.0220m  
    1.93000n      8.0505u    750.0251m  
    1.94000n      8.5811u    750.0283m  
    1.95000n      6.8908u    750.0186m  
    1.96000n      5.0741u    750.0083m  
    1.97000n      3.2574u    749.9979m  
    1.98000n      1.4407u    749.9875m  
    1.99000n      0.         749.9772m  
    2.00000n     -2.1926u    749.9668m  
    2.01000n     -2.2565m    750.0148m  
    2.02000n      4.7195m    750.2591m  
    2.03000n    257.6591m    738.4987m  
    2.04000n    707.4815m     85.8759m  
    2.05000n    746.6784m   -750.8811u  
    2.06000n    749.9891m      1.2964u  
    2.07000n    750.0204m     19.2525u  
    2.08000n    749.9960m   -588.3817n  
    2.09000n    749.9974m      3.4013u  
    2.10000n    749.9973m      3.0986u  
    2.11000n    749.9974m      3.2810u  
    2.12000n    749.9974m      3.2807u  
    2.13000n    749.9974m      3.2785u  
    2.14000n    749.9974m      3.2807u  
    2.15000n    749.9974m      3.2829u  
    2.16000n    749.9974m      3.2847u  
    2.17000n    749.9974m      3.2839u  
    2.18000n    749.9974m      3.2831u  
    2.19000n    749.9974m      3.2823u  
    2.20000n    749.9974m      3.2815u  
    2.21000n    749.9974m      3.2807u  
    2.22000n    749.9974m      3.2799u  
    2.23000n    749.9974m      3.2791u  
    2.24000n    749.9974m      3.2783u  
    2.25000n    749.9974m      3.2776u  
    2.26000n    749.9974m      3.2776u  
    2.27000n    749.9974m      3.2780u  
    2.28000n    749.9974m      3.2784u  
    2.29000n    749.9974m      3.2788u  
    2.30000n    749.9974m      3.2792u  
    2.31000n    749.9974m      3.2796u  
    2.32000n    749.9974m      3.2800u  
    2.33000n    749.9974m      3.2804u  
    2.34000n    749.9974m      3.2808u  
    2.35000n    749.9974m      3.2812u  
    2.36000n    749.9974m      3.2816u  
    2.37000n    749.9974m      3.2820u  
    2.38000n    749.9974m      3.2824u  
    2.39000n    749.9974m      3.2827u  
    2.40000n    749.9974m      3.2831u  
    2.41000n    749.9974m      3.2835u  
    2.42000n    749.9974m      3.2839u  
    2.43000n    749.9974m      3.2843u  
    2.44000n    749.9974m      3.2847u  
    2.45000n    749.9974m      3.2845u  
    2.46000n    749.9974m      3.2841u  
    2.47000n    749.9974m      3.2838u  
    2.48000n    749.9974m      3.2834u  
    2.49000n    749.9974m      3.2830u  
    2.50000n    749.9974m      3.2826u  
    2.51000n    749.9974m      3.2823u  
    2.52000n    749.9974m      3.2819u  
    2.53000n    749.9974m      3.2815u  
    2.54000n    749.9974m      3.2811u  
    2.55000n    749.9974m      3.2808u  
    2.56000n    749.9974m      3.2804u  
    2.57000n    749.9974m      3.2800u  
    2.58000n    749.9974m      3.2797u  
    2.59000n    749.9974m      3.2793u  
    2.60000n    749.9974m      3.2789u  
    2.61000n    749.9974m      3.2785u  
    2.62000n    749.9974m      3.2782u  
    2.63000n    749.9974m      3.2778u  
    2.64000n    749.9974m      3.2774u  
    2.65000n    749.9974m      3.2776u  
    2.66000n    749.9974m      3.2780u  
    2.67000n    749.9974m      3.2784u  
    2.68000n    749.9974m      3.2788u  
    2.69000n    749.9974m      3.2791u  
    2.70000n    749.9974m      3.2795u  
    2.71000n    749.9974m      3.2799u  
    2.72000n    749.9974m      3.2803u  
    2.73000n    749.9974m      3.2806u  
    2.74000n    749.9974m      3.2810u  
    2.75000n    749.9974m      3.2814u  
    2.76000n    749.9974m      3.2817u  
    2.77000n    749.9974m      3.2821u  
    2.78000n    749.9974m      3.2825u  
    2.79000n    749.9974m      3.2829u  
    2.80000n    749.9974m      3.2832u  
    2.81000n    749.9974m      3.2836u  
    2.82000n    749.9974m      3.2840u  
    2.83000n    749.9974m      3.2843u  
    2.84000n    749.9974m      3.2847u  
    2.85000n    749.9974m      3.2845u  
    2.86000n    749.9974m      3.2841u  
    2.87000n    749.9974m      3.2838u  
    2.88000n    749.9974m      3.2834u  
    2.89000n    749.9974m      3.2831u  
    2.90000n    749.9974m      3.2827u  
    2.91000n    749.9974m      3.2824u  
    2.92000n    749.9974m      3.2820u  
    2.93000n    749.9974m      3.2816u  
    2.94000n    749.9974m      3.2813u  
    2.95000n    749.9974m      3.2809u  
    2.96000n    749.9974m      3.2806u  
    2.97000n    749.9974m      3.2802u  
    2.98000n    749.9974m      3.2799u  
    2.99000n    749.9974m      3.2795u  
    3.00000n    749.9974m      3.2791u  
    3.01000n    749.9974m      3.2788u  
    3.02000n    749.9974m      3.2784u  
    3.03000n    749.9974m      3.2781u  
    3.04000n    749.9974m      3.2777u  
    3.05000n    749.9974m      3.2774u  
    3.06000n    659.2175m   -250.4006u  
    3.07000n    568.4377m   -504.0786u  
    3.08000n    385.6072m     64.9743m  
    3.09000n    166.3212m      1.4484   
    3.10000n   -218.9808m      2.6786   
    3.11000n     18.4597u    750.0385m  
    3.12000n      6.4328u    750.0060m  
    3.13000n     10.2284u    750.0149m  
    3.14000n    -11.4554u    749.9604m  
    3.15000n     -9.0492u    749.9665m  
    3.16000n      1.8302u    749.9938m  
    3.17000n     12.7095u    750.0212m  
    3.18000n     23.5889u    750.0485m  
    3.19000n     18.3746u    750.0354m  
    3.20000n     13.0190u    750.0219m  
    3.21000n      7.6634u    750.0084m  
    3.22000n      2.3078u    749.9950m  
    3.23000n     -3.0479u    749.9815m  
    3.24000n     -8.4035u    749.9680m  
    3.25000n    -13.7591u    749.9545m  
    3.26000n    -16.0956u    749.9486m  
    3.27000n    -13.1627u    749.9560m  
    3.28000n    -10.2297u    749.9634m  
    3.29000n     -7.2968u    749.9708m  
    3.30000n     -4.3639u    749.9782m  
    3.31000n     -1.4309u    749.9855m  
    3.32000n      1.5020u    749.9929m  
    3.33000n      4.4349u    750.0003m  
    3.34000n      7.3678u    750.0077m  
    3.35000n     10.3008u    750.0151m  
    3.36000n     13.2337u    750.0225m  
    3.37000n     16.1666u    750.0298m  
    3.38000n     19.0996u    750.0372m  
    3.39000n     22.0325u    750.0446m  
    3.40000n     22.8706u    750.0467m  
    3.41000n     20.8249u    750.0416m  
    3.42000n     18.7792u    750.0364m  
    3.43000n     16.7336u    750.0313m  
    3.44000n     14.6879u    750.0261m  
    3.45000n     12.6423u    750.0210m  
    3.46000n     10.5966u    750.0158m  
    3.47000n      8.5510u    750.0107m  
    3.48000n      6.5053u    750.0055m  
    3.49000n      4.4597u    750.0003m  
    3.50000n      2.4140u    749.9952m  
    3.51000n      0.         749.9900m  
    3.52000n     -1.6773u    749.9849m  
    3.53000n     -3.7230u    749.9797m  
    3.54000n     -5.7686u    749.9746m  
    3.55000n     -7.8143u    749.9694m  
    3.56000n     -9.8599u    749.9643m  
    3.57000n    -11.9056u    749.9591m  
    3.58000n    -13.9512u    749.9540m  
    3.59000n    -15.9969u    749.9488m  
    3.60000n    -16.3207u    749.9480m  
    3.61000n    -14.2741u    749.9532m  
    3.62000n    -12.2276u    749.9583m  
    3.63000n    -10.1811u    749.9635m  
    3.64000n     -8.1345u    749.9686m  
    3.65000n     -6.0880u    749.9738m  
    3.66000n     -4.0415u    749.9789m  
    3.67000n     -1.9950u    749.9841m  
    3.68000n      0.         749.9893m  
    3.69000n      2.0981u    749.9944m  
    3.70000n      4.1446u    749.9996m  
    3.71000n      6.1911u    750.0047m  
    3.72000n      8.2377u    750.0099m  
    3.73000n     10.2842u    750.0150m  
    3.74000n     12.3307u    750.0202m  
    3.75000n     14.3772u    750.0254m  
    3.76000n     16.4238u    750.0305m  
    3.77000n     18.4703u    750.0357m  
    3.78000n     20.5168u    750.0408m  
    3.79000n     22.5633u    750.0460m  
    3.80000n     22.9051u    750.0468m  
    3.81000n     20.9003u    750.0418m  
    3.82000n     18.8954u    750.0367m  
    3.83000n     16.8906u    750.0317m  
    3.84000n     14.8857u    750.0266m  
    3.85000n     12.8809u    750.0216m  
    3.86000n     10.8760u    750.0165m  
    3.87000n      8.8712u    750.0115m  
    3.88000n      6.8663u    750.0064m  
    3.89000n      4.8614u    750.0013m  
    3.90000n      2.8566u    749.9963m  
    3.91000n    851.7380n    749.9912m  
    3.92000n     -1.1531u    749.9862m  
    3.93000n     -3.1580u    749.9811m  
    3.94000n     -5.1628u    749.9761m  
    3.95000n     -7.1677u    749.9710m  
    3.96000n     -9.1725u    749.9660m  
    3.97000n    -11.1774u    749.9609m  
    3.98000n    -13.1822u    749.9558m  
    3.99000n    -15.1871u    749.9508m  
    4.00000n    -17.1920u    749.9457m  
y
x

        time    voltage      voltage    
                 outin_10     outin_20  
    0.          749.9974m      3.2810u  
   10.00000p    750.0252m      4.2159u  
   20.00000p    750.8419m     25.3448u  
   30.00000p    754.8840m   -147.6640u  
   40.00000p     55.8374m    712.8874m  
   50.00000p     -1.0129m    747.6341m  
   60.00000p     28.4033u    750.0398m  
   70.00000p    -15.0714u    749.9624m  
   80.00000p     27.3585u    750.0458m  
   90.00000p     27.5194u    750.0456m  
  100.00000p      7.8721u    750.0062m  
  110.00000p    -11.7753u    749.9668m  
  120.00000p    -31.4226u    749.9274m  
  130.00000p    -25.6233u    749.9392m  
  140.00000p    -16.5942u    749.9575m  
  150.00000p     -7.5651u    749.9757m  
  160.00000p      1.4641u    749.9940m  
  170.00000p     10.4932u    750.0122m  
  180.00000p     19.5223u    750.0304m  
  190.00000p     28.5514u    750.0487m  
  200.00000p     37.5805u    750.0669m  
  210.00000p     36.6319u    750.0650m  
  220.00000p     32.2626u    750.0561m  
  230.00000p     27.8934u    750.0473m  
  240.00000p     23.5242u    750.0384m  
  250.00000p     19.1549u    750.0295m  
  260.00000p     14.7857u    750.0207m  
  270.00000p     10.4165u    750.0118m  
[...]
    3.65000n      3.2808u    749.9974m  
    3.66000n      3.2808u    749.9974m  
    3.67000n      3.2808u    749.9974m  
    3.68000n      3.2808u    749.9974m  
    3.69000n      3.2808u    749.9974m  
    3.70000n      3.2808u    749.9974m  
    3.71000n      3.2808u    749.9974m  
    3.72000n      3.2808u    749.9974m  
    3.73000n      3.2808u    749.9974m  
    3.74000n      3.2808u    749.9974m  
    3.75000n      3.2808u    749.9974m  
    3.76000n      3.2808u    749.9974m  
    3.77000n      3.2808u    749.9974m  
    3.78000n      3.2808u    749.9974m  
    3.79000n      3.2808u    749.9974m  
    3.80000n      3.2808u    749.9974m  
    3.81000n      3.2808u    749.9974m  
    3.82000n      3.2808u    749.9974m  
    3.83000n      3.2808u    749.9974m  
    3.84000n      3.2808u    749.9974m  
    3.85000n      3.2808u    749.9974m  
    3.86000n      3.2808u    749.9974m  
    3.87000n      3.2808u    749.9974m  
    3.88000n      3.2808u    749.9974m  
    3.89000n      3.2808u    749.9974m  
    3.90000n      3.2808u    749.9974m  
    3.91000n      3.2808u    749.9974m  
    3.92000n      3.2808u    749.9974m  
    3.93000n      3.2808u    749.9974m  
    3.94000n      3.2808u    749.9974m  
    3.95000n      3.2808u    749.9974m  
    3.96000n      3.2808u    749.9974m  
    3.97000n      3.2808u    749.9974m  
    3.98000n      3.2808u    749.9974m  
    3.99000n      3.2808u    749.9974m  
    4.00000n      3.2808u    749.9974m  
y
x

        time    voltage      voltage    
                 outin_11     outin_21  
    0.          749.9974m      3.2810u  
   10.00000p    750.0252m      4.2159u  
   20.00000p    750.8419m     25.3448u  
   30.00000p    754.8840m   -147.6640u  
   40.00000p     55.8374m    712.8874m  
   50.00000p     -1.0129m    747.6341m  
   60.00000p     28.4033u    750.0398m  
   70.00000p    -15.0714u    749.9624m  
   80.00000p     27.3585u    750.0458m  
   90.00000p     27.5194u    750.0456m  
  100.00000p      7.8721u    750.0062m  
  110.00000p    -11.7753u    749.9668m  
  120.00000p    -31.4226u    749.9274m  
  130.00000p    -25.6233u    749.9392m  
  140.00000p    -16.5942u    749.9575m  
  150.00000p     -7.5651u    749.9757m  
  160.00000p      1.4641u    749.9940m  
  170.00000p     10.4932u    750.0122m  
  180.00000p     19.5223u    750.0304m  
  190.00000p     28.5514u    750.0487m  
  200.00000p     37.5805u    750.0669m  
  210.00000p     36.6319u    750.0650m  
  220.00000p     32.2626u    750.0561m  
  230.00000p     27.8934u    750.0473m  
  240.00000p     23.5242u    750.0384m  
  250.00000p     19.1549u    750.0295m  
  260.00000p     14.7857u    750.0207m  
  270.00000p     10.4165u    750.0118m  
  280.00000p      6.0472u    750.0030m  
  290.00000p      1.6780u    749.9941m  
  300.00000p     -2.6912u    749.9852m  
  310.00000p     -7.0605u    749.9764m  
  320.00000p    -11.4297u    749.9675m  
  330.00000p    -15.7989u    749.9586m  
  340.00000p    -20.1682u    749.9498m  
  350.00000p    -24.5374u    749.9409m  
  360.00000p    -28.9066u    749.9320m  
  370.00000p    -33.0893u    749.9236m  
  380.00000p    -29.4493u    749.9310m  
  390.00000p    -25.8093u    749.9384m  
  400.00000p    -22.1694u    749.9458m  
  410.00000p    -18.5294u    749.9532m  
  420.00000p    -14.8894u    749.9606m  
  430.00000p    -11.2494u    749.9680m  
  440.00000p     -7.6094u    749.9754m  
  450.00000p     -3.9695u    749.9828m  
  460.00000p      0.         749.9902m  
  470.00000p      3.3105u    749.9976m  
  480.00000p      6.9505u    750.0050m  
  490.00000p     10.5904u    750.0124m  
  500.00000p     14.2304u    750.0198m  
  510.00000p     17.8704u    750.0272m  
  520.00000p     21.5104u    750.0346m  
  530.00000p     25.1504u    750.0419m  
  540.00000p     28.7903u    750.0493m  
  550.00000p     32.4303u    750.0567m  
  560.00000p     36.0703u    750.0641m  
  570.00000p     39.5410u    750.0712m  
  580.00000p     35.9139u    750.0638m  
  590.00000p     32.2868u    750.0564m  
  600.00000p     28.6597u    750.0490m  
  610.00000p     25.0327u    750.0416m  
  620.00000p     21.4056u    750.0343m  
  630.00000p     17.7785u    750.0269m  
  640.00000p     14.1514u    750.0195m  
  650.00000p     10.5243u    750.0121m  
  660.00000p      6.8973u    750.0047m  
  670.00000p      3.2702u    749.9973m  
  680.00000p      0.         749.9899m  
  690.00000p     -3.9840u    749.9825m  
  700.00000p     -7.6110u    749.9751m  
  710.00000p    -11.2381u    749.9678m  
  720.00000p    -14.8652u    749.9604m  
  730.00000p    -18.4923u    749.9530m  
  740.00000p    -22.1193u    749.9456m  
  750.00000p    -25.7464u    749.9382m  
  760.00000p    -29.3735u    749.9308m  
  770.00000p    -32.8319u    749.9238m  
  780.00000p    -29.2169u    749.9312m  
  790.00000p    -25.6019u    749.9385m  
  800.00000p    -21.9869u    749.9459m  
  810.00000p    -18.3720u    749.9533m  
  820.00000p    -14.7570u    749.9607m  
  830.00000p    -11.1420u    749.9680m  
  840.00000p     -7.5270u    749.9754m  
  850.00000p     -3.9121u    749.9828m  
  860.00000p      0.         749.9902m  
  870.00000p      3.3179u    749.9976m  
  880.00000p      6.9329u    750.0049m  
  890.00000p     10.5479u    750.0123m  
  900.00000p     14.1628u    750.0197m  
  910.00000p     17.7778u    750.0271m  
  920.00000p     21.3928u    750.0344m  
  930.00000p     25.0078u    750.0418m  
  940.00000p     28.6227u    750.0492m  
  950.00000p     32.2377u    750.0566m  
  960.00000p     35.8527u    750.0640m  
  970.00000p     39.1747u    750.0707m  
  980.00000p     30.2152u    750.0524m  
  990.00000p     21.2557u    750.0340m  
    1.00000n     12.2962u    750.0157m  
    1.01000n      3.3367u    749.9974m  
    1.02000n     -5.6229u    749.9790m  
    1.03000n    -14.5824u    749.9607m  
    1.04000n    -23.5419u    749.9423m  
    1.05000n    -32.5014u    749.9240m  
    1.06000n      3.7961u    749.9983m  
    1.07000n      2.9725u    749.9969m  
    1.08000n      3.1033u    749.9972m  
    1.09000n      3.2719u    749.9974m  
    1.10000n      3.0364u    749.9969m  
    1.11000n      3.2841u    749.9974m  
    1.12000n      3.2756u    749.9974m  
    1.13000n      3.2794u    749.9974m  
    1.14000n      3.2837u    749.9974m  
    1.15000n      3.2851u    749.9974m  
    1.16000n      3.2834u    749.9974m  
    1.17000n      3.2817u    749.9974m  
    1.18000n      3.2801u    749.9974m  
    1.19000n      3.2784u    749.9974m  
    1.20000n      3.2767u    749.9974m  
    1.21000n      3.2755u    749.9974m  
    1.22000n      3.2763u    749.9974m  
    1.23000n      3.2771u    749.9974m  
    1.24000n      3.2779u    749.9974m  
    1.25000n      3.2787u    749.9974m  
    1.26000n      3.2795u    749.9974m  
    1.27000n      3.2803u    749.9974m  
    1.28000n      3.2810u    749.9974m  
    1.29000n      3.2818u    749.9974m  
    1.30000n      3.2826u    749.9974m  
    1.31000n      3.2834u    749.9974m  
    1.32000n      3.2842u    749.9974m  
    1.33000n      3.2850u    749.9974m  
    1.34000n      3.2858u    749.9974m  
    1.35000n      3.2853u    749.9974m  
    1.36000n      3.2848u    749.9974m  
    1.37000n      3.2843u    749.9974m  
    1.38000n      3.2838u    749.9974m  
    1.39000n      3.2833u    749.9974m  
    1.40000n      3.2827u    749.9974m  
    1.41000n      3.2822u    749.9974m  
    1.42000n      3.2817u    749.9974m  
    1.43000n      3.2812u    749.9974m  
    1.44000n      3.2806u    749.9974m  
    1.45000n      3.2801u    749.9974m  
    1.46000n      3.2796u    749.9974m  
    1.47000n      3.2791u    749.9974m  
    1.48000n      3.2786u    749.9974m  
    1.49000n      3.2780u    749.9974m  
    1.50000n      3.2775u    749.9974m  
    1.51000n      3.2770u    749.9974m  
    1.52000n      3.2765u    749.9974m  
    1.53000n      3.2759u    749.9974m  
    1.54000n      3.2754u    749.9974m  
    1.55000n      3.2759u    749.9974m  
    1.56000n      3.2764u    749.9974m  
    1.57000n      3.2769u    749.9974m  
    1.58000n      3.2774u    749.9974m  
    1.59000n      3.2780u    749.9974m  
    1.60000n      3.2785u    749.9974m  
    1.61000n      3.2790u    749.9974m  
    1.62000n      3.2795u    749.9974m  
    1.63000n      3.2801u    749.9974m  
    1.64000n      3.2806u    749.9974m  
    1.65000n      3.2811u    749.9974m  
    1.66000n      3.2816u    749.9974m  
    1.67000n      3.2821u    749.9974m  
    1.68000n      3.2827u    749.9974m  
    1.69000n      3.2832u    749.9974m  
    1.70000n      3.2837u    749.9974m  
    1.71000n      3.2842u    749.9974m  
    1.72000n      3.2847u    749.9974m  
    1.73000n      3.2853u    749.9974m  
    1.74000n      3.2858u    749.9974m  
    1.75000n      3.2853u    749.9974m  
    1.76000n      3.2848u    749.9974m  
    1.77000n      3.2843u    749.9974m  
    1.78000n      3.2838u    749.9974m  
    1.79000n      3.2832u    749.9974m  
    1.80000n      3.2827u    749.9974m  
    1.81000n      3.2822u    749.9974m  
    1.82000n      3.2817u    749.9974m  
    1.83000n      3.2812u    749.9974m  
    1.84000n      3.2806u    749.9974m  
    1.85000n      3.2801u    749.9974m  
    1.86000n      3.2796u    749.9974m  
    1.87000n      3.2791u    749.9974m  
    1.88000n      3.2786u    749.9974m  
    1.89000n      3.2780u    749.9974m  
    1.90000n      3.2775u    749.9974m  
    1.91000n      3.2770u    749.9974m  
    1.92000n      3.2765u    749.9974m  
    1.93000n      3.2760u    749.9974m  
    1.94000n      3.2754u    749.9974m  
    1.95000n      3.2771u    749.9974m  
    1.96000n      3.2788u    749.9974m  
    1.97000n      3.2805u    749.9974m  
    1.98000n      3.2823u    749.9974m  
    1.99000n      3.2840u    749.9974m  
    2.00000n      3.2858u    749.9974m  
    2.01000n      3.2810u    749.9974m  
    2.02000n      3.2811u    749.9974m  
    2.03000n      3.2810u    749.9974m  
    2.04000n      3.2810u    749.9974m  
    2.05000n      3.2810u    749.9974m  
    2.06000n      4.7763u    749.9923m  
    2.07000n     71.5571m    709.4049m  
    2.08000n    293.9098m    583.2320m  
    2.09000n    747.4103m      1.6448m  
    2.10000n    749.3521m     -1.3855m  
    2.11000n    750.0016m      1.5024u  
    2.12000n    749.9964m      1.4812u  
    2.13000n    750.0038m    -13.1115u  
    2.14000n    749.9988m    765.6772n  
    2.15000n    749.9937m     14.6429u  
    2.16000n    749.9897m     25.8213u  
    2.17000n    749.9913m     20.9083u  
    2.18000n    749.9930m     15.9952u  
    2.19000n    749.9946m     11.0822u  
    2.20000n    749.9962m      6.1691u  
    2.21000n    749.9979m      1.2561u  
    2.22000n    749.9995m     -3.6569u  
    2.23000n    750.0012m     -8.5700u  
    2.24000n    750.0028m    -13.4830u  
    2.25000n    750.0045m    -18.3961u  
    2.26000n    750.0043m    -17.9822u  
    2.27000n    750.0035m    -15.5513u  
    2.28000n    750.0028m    -13.1205u  
    2.29000n    750.0020m    -10.6896u  
    2.30000n    750.0012m     -8.2588u  
    2.31000n    750.0004m     -5.8280u  
    2.32000n    749.9996m     -3.3971u  
    2.33000n    749.9988m   -966.2779n  
    2.34000n    749.9980m      1.4646u  
    2.35000n    749.9973m      3.8954u  
    2.36000n    749.9965m      6.3262u  
    2.37000n    749.9957m      8.7571u  
    2.38000n    749.9949m     11.1879u  
    2.39000n    749.9941m     13.6188u  
    2.40000n    749.9933m     16.0496u  
    2.41000n    749.9925m     18.4804u  
    2.42000n    749.9918m     20.9113u  
    2.43000n    749.9910m     23.3421u  
    2.44000n    749.9902m     25.7730u  
    2.45000n    749.9906m     24.3920u  
    2.46000n    749.9913m     22.1023u  
    2.47000n    749.9921m     19.8126u  
    2.48000n    749.9928m     17.5230u  
    2.49000n    749.9935m     15.2333u  
    2.50000n    749.9942m     12.9437u  
    2.51000n    749.9950m     10.6540u  
    2.52000n    749.9957m      8.3643u  
    2.53000n    749.9964m      6.0747u  
    2.54000n    749.9971m      3.7850u  
    2.55000n    749.9979m      1.4954u  
    2.56000n    749.9986m   -794.3030n  
    2.57000n    749.9993m     -3.0840u  
    2.58000n    750.0000m     -5.3736u  
    2.59000n    750.0008m     -7.6633u  
    2.60000n    750.0015m     -9.9529u  
    2.61000n    750.0022m    -12.2426u  
    2.62000n    750.0029m    -14.5323u  
    2.63000n    750.0037m    -16.8219u  
    2.64000n    750.0044m    -19.1116u  
    2.65000n    750.0040m    -17.7109u  
    2.66000n    750.0032m    -15.4306u  
    2.67000n    750.0025m    -13.1502u  
    2.68000n    750.0018m    -10.8698u  
    2.69000n    750.0011m     -8.5894u  
    2.70000n    750.0004m     -6.3091u  
    2.71000n    749.9997m     -4.0287u  
    2.72000n    749.9990m     -1.7483u  
    2.73000n    749.9983m    532.0351n  
    2.74000n    749.9976m      2.8124u  
    2.75000n    749.9969m      5.0928u  
    2.76000n    749.9962m      7.3731u  
    2.77000n    749.9955m      9.6535u  
    2.78000n    749.9948m     11.9339u  
    2.79000n    749.9941m     14.2143u  
    2.80000n    749.9934m     16.4946u  
    2.81000n    749.9927m     18.7750u  
    2.82000n    749.9920m     21.0554u  
    2.83000n    749.9912m     23.3357u  
    2.84000n    749.9905m     25.6161u  
    2.85000n    749.9909m     24.2921u  
    2.86000n    749.9916m     22.1089u  
    2.87000n    749.9923m     19.9257u  
    2.88000n    749.9929m     17.7425u  
    2.89000n    749.9936m     15.5593u  
    2.90000n    749.9942m     13.3761u  
    2.91000n    749.9949m     11.1929u  
    2.92000n    749.9956m      9.0097u  
    2.93000n    749.9962m      6.8265u  
    2.94000n    749.9969m      4.6433u  
    2.95000n    749.9976m      2.4601u  
    2.96000n    749.9982m      0.       
    2.97000n    749.9989m     -1.9063u  
    2.98000n    749.9995m     -4.0895u  
    2.99000n    750.0002m     -6.2727u  
    3.00000n    750.0009m     -8.4559u  
    3.01000n    750.0015m    -10.6390u  
    3.02000n    750.0022m    -12.8222u  
    3.03000n    750.0028m    -15.0054u  
    3.04000n    750.0035m    -17.1886u  
    3.05000n    750.0042m    -19.3718u  
    3.06000n    750.0016m    -10.3756u  
    3.07000n    749.9990m     -1.3794u  
    3.08000n    749.9973m      3.3737u  
    3.09000n    749.9974m      3.2807u  
    3.10000n    749.9974m      3.2810u  
    3.11000n    749.9974m      3.2810u  
    3.12000n    749.9974m      3.2810u  
    3.13000n    749.9974m      3.2810u  
    3.14000n    749.9974m      3.2810u  
    3.15000n    749.9974m      3.2810u  
    3.16000n    749.9974m      3.2810u  
    3.17000n    749.9974m      3.2810u  
    3.18000n    749.9974m      3.2810u  
    3.19000n    749.9974m      3.2810u  
    3.20000n    749.9974m      3.2810u  
    3.21000n    749.9974m      3.2810u  
    3.22000n    749.9974m      3.2810u  
    3.23000n    749.9974m      3.2810u  
    3.24000n    749.9974m      3.2810u  
    3.25000n    749.9974m      3.2810u  
    3.26000n    749.9974m      3.2810u  
    3.27000n    749.9974m      3.2810u  
    3.28000n    749.9974m      3.2810u  
    3.29000n    749.9974m      3.2810u  
    3.30000n    749.9974m      3.2810u  
    3.31000n    749.9974m      3.2810u  
    3.32000n    749.9974m      3.2810u  
    3.33000n    749.9974m      3.2810u  
    3.34000n    749.9974m      3.2810u  
    3.35000n    749.9974m      3.2810u  
    3.36000n    749.9974m      3.2810u  
    3.37000n    749.9974m      3.2810u  
    3.38000n    749.9974m      3.2810u  
    3.39000n    749.9974m      3.2810u  
    3.40000n    749.9974m      3.2810u  
    3.41000n    749.9974m      3.2810u  
    3.42000n    749.9974m      3.2810u  
    3.43000n    749.9974m      3.2810u  
    3.44000n    749.9974m      3.2810u  
    3.45000n    749.9974m      3.2810u  
    3.46000n    749.9974m      3.2810u  
    3.47000n    749.9974m      3.2810u  
    3.48000n    749.9974m      3.2810u  
    3.49000n    749.9974m      3.2810u  
    3.50000n    749.9974m      3.2810u  
    3.51000n    749.9974m      3.2810u  
    3.52000n    749.9974m      3.2810u  
    3.53000n    749.9974m      3.2810u  
    3.54000n    749.9974m      3.2810u  
    3.55000n    749.9974m      3.2810u  
    3.56000n    749.9974m      3.2810u  
    3.57000n    749.9974m      3.2810u  
    3.58000n    749.9974m      3.2810u  
    3.59000n    749.9974m      3.2810u  
    3.60000n    749.9974m      3.2810u  
    3.61000n    749.9974m      3.2810u  
    3.62000n    749.9974m      3.2810u  
    3.63000n    749.9974m      3.2810u  
    3.64000n    749.9974m      3.2810u  
    3.65000n    749.9974m      3.2810u  
    3.66000n    749.9974m      3.2810u  
    3.67000n    749.9974m      3.2810u  
    3.68000n    749.9974m      3.2810u  
    3.69000n    749.9974m      3.2810u  
    3.70000n    749.9974m      3.2810u  
    3.71000n    749.9974m      3.2810u  
    3.72000n    749.9974m      3.2810u  
    3.73000n    749.9974m      3.2810u  
    3.74000n    749.9974m      3.2810u  
    3.75000n    749.9974m      3.2810u  
    3.76000n    749.9974m      3.2810u  
    3.77000n    749.9974m      3.2810u  
    3.78000n    749.9974m      3.2810u  
    3.79000n    749.9974m      3.2810u  
    3.80000n    749.9974m      3.2810u  
    3.81000n    749.9974m      3.2810u  
    3.82000n    749.9974m      3.2810u  
    3.83000n    749.9974m      3.2810u  
    3.84000n    749.9974m      3.2810u  
    3.85000n    749.9974m      3.2810u  
    3.86000n    749.9974m      3.2810u  
    3.87000n    749.9974m      3.2810u  
    3.88000n    749.9974m      3.2810u  
    3.89000n    749.9974m      3.2810u  
    3.90000n    749.9974m      3.2810u  
    3.91000n    749.9974m      3.2810u  
    3.92000n    749.9974m      3.2810u  
    3.93000n    749.9974m      3.2810u  
    3.94000n    749.9974m      3.2810u  
    3.95000n    749.9974m      3.2810u  
    3.96000n    749.9974m      3.2810u  
    3.97000n    749.9974m      3.2810u  
    3.98000n    749.9974m      3.2810u  
    3.99000n    749.9974m      3.2810u  
    4.00000n    749.9974m      3.2810u  
y

          ***** job concluded
1****** HSPICE -- F-2011.09-SP2 64-BIT (Feb 27 2012) linux ******               
 ******  
 $this uut was automatically generated by:

  ******  job statistics summary tnom=  25.000 temp=  25.000 *****
  
  
 ******  Machine Information  ******
 CPU:
 model name	: Intel(R) Xeon(R) CPU E5-2650 v4 @ 2.20GHz
 cpu MHz	: 2589.640
  
 OS:
 Linux version 3.10.0-693.17.1.el7.x86_64 (mockbuild@x86-041.build.eng.bos.redha
 t.com) (gcc version 4.8.5 20150623 (Red Hat 4.8.5-16) (GCC) ) #1 SMP Sun Jan 14
  10:36:03 EST 2018


  ******  HSPICE Threads Information  ******

  Command Line Threads Count :     1
  Available CPU Count        :    24
  Actual Threads Count       :     1


  ******  Circuit Statistics  ******
  # nodes       =      46 # elements   =      19
  # resistors   =       0 # capacitors =       0 # inductors   =       0
  # mutual_inds =       0 # vccs       =       0 # vcvs        =       0
  # cccs        =       0 # ccvs       =       0 # volt_srcs   =       3
  # curr_srcs   =       0 # diodes     =       0 # bjts        =       0
  # jfets       =       0 # mosfets    =      16 # U elements  =       0
  # T elements  =       0 # W elements =       0 # B elements  =       0
  # S elements  =       0 # P elements =       0 # va device   =       0
  # vector_srcs =       0


  ******  Runtime Statistics (seconds)  ******

  analysis           time    # points   tot. iter  conv.iter
  op point           0.02           1         113
  transient          0.06         401         745         136 rev=         9
  readin             0.01
  errchk             0.00
  setup              0.00
  output             0.00


           peak memory used        135.46 megabytes
           total cpu time            0.09 seconds
           total elapsed time        0.35 seconds
           job started at     23:40:44 09/12/2020
           job ended   at     23:40:44 09/12/2020


 lic: Release hspice token(s) 
