$DATA1 SOURCE='HSPICE' VERSION='F-2011.09-SP2 64-BIT'
.TITLE '$this uut was automatically generated by:'
 trf_delay_001    tfr_delay_001    trf_delay_002    tfr_delay_002     
 trf_delay_003    tfr_delay_003    trf_delay_004    tfr_delay_004     
 trf_delay_101    tfr_delay_101    trf_delay_102    tfr_delay_102     
 trf_delay_103    tfr_delay_103    trf_delay_104    tfr_delay_104     
 trf_delay_201    tfr_delay_201    trf_delay_202    tfr_delay_202     
 trf_delay_203    tfr_delay_203    trf_delay_204    tfr_delay_204     
 trf_delay_011    tfr_delay_011    trf_delay_012    tfr_delay_012     
 trf_delay_111    tfr_delay_111    trf_delay_112    tfr_delay_112     
 trf_delay_211    tfr_delay_211    trf_delay_212    tfr_delay_212     
 trf_delay_021    tfr_delay_021    trf_delay_121    tfr_delay_121     
 trf_delay_221    tfr_delay_221    inv_avg_power00  peakpower00       
 power_avg        avg_power        temper           alter#            
  3.948e-12        4.450e-12        4.006e-12        4.557e-12        
  4.198e-12        4.145e-12        4.425e-12        4.536e-12        
  2.704e-12        3.163e-12        3.197e-12        4.110e-12        
  3.277e-12        3.236e-12        3.019e-12        3.014e-12        
  1.534e-12        1.574e-12        4.972e-13        1.502e-12        
  1.998e-12        1.798e-12        1.597e-12        1.652e-12        
  3.948e-12        3.959e-12        4.198e-12        4.458e-12        
  2.982e-12        3.163e-12        1.981e-12        3.236e-12        
  1.534e-12        1.101e-12        1.998e-12        2.773e-12        
  3.948e-12        3.968e-12        2.838e-12        3.163e-12        
  1.534e-12        1.361e-12        3.366e-07        2.288e-04        
  2.428e-06       -1.058e+12         25.0000        1                 
