 ****** HSPICE -- F-2011.09-SP2 64-BIT (Feb 27 2012) linux ******               
  Copyright (C) 2011 Synopsys, Inc. All Rights Reserved.                        
  Unpublished-rights reserved under US copyright laws.
  This program is protected by law and is subject to the
  terms and conditions of the license agreement from Synopsys.
  Use of this program is your acceptance to be bound by the
  license agreement. HSPICE is the trademark of Synopsys, Inc.
  Input File: ptm10lstp.sp                                                      
  Command line options: ptm10lstp.sp
 lic:  
 lic: FLEXlm: v10.8 
 lic: USER:   iliabautista         HOSTNAME: itn2.rc.usf.edu 
 lic: HOSTID:                      PID:      17687 
 lic: Using FLEXlm license file: 
 lic: 27000@license0.rc.usf.edu 
 lic: Checkout 1 hspice 
 lic: License/Maintenance for hspice will expire on 18-jul-2021/2019.06 
 lic: 1(in_use)/50(total) FLOATING license(s) on SERVER license0.rc.usf.edu 
 lic:   
  **warning** (../modelfiles/lstp/10nfet.pm:4) Model nfet device geometries will not be checked against the limits set by lmin, lmax, nfinmin and nfinmax. To enable this check, add a period(.) to the model name(i.e. enable model selector).
1****** HSPICE -- F-2011.09-SP2 64-BIT (Feb 27 2012) linux ******               
 ******  
 $this uut was automatically generated by:

  ******  circuit name directory
 circuit number to circuit name directory
   number circuitname                     definition         multiplier
        0 main circuit
        1 xinput_0.                       inverter           1.00 
        2 xinput_1.                       inverter           1.00 
        3 xinput_2.                       inverter           1.00 
        4 xinverter00.                    inverter           1.00 
        5 xinverter10.                    inverter           1.00 
        6 xinverter20.                    inverter           1.00 
        7 xinverter01.                    inverter           1.00 
        8 xinverter11.                    inverter           1.00 
        9 xinverter21.                    inverter           1.00 
       10 xinverter02.                    inverter           1.00 
       11 xinverter12.                    inverter           1.00 
       12 xinverter22.                    inverter           1.00 
       13 xoutput_00.                     inverter           1.00 
       14 xoutput_10.                     inverter           1.00 
       15 xoutput_20.                     inverter           1.00 
       16 xinput_0.xpfet.                 pfet               1.00 
       17 xinput_0.xnfet.                 nfet               1.00 
       18 xinput_1.xpfet.                 pfet               1.00 
       19 xinput_1.xnfet.                 nfet               1.00 
       20 xinput_2.xpfet.                 pfet               1.00 
       21 xinput_2.xnfet.                 nfet               1.00 
       22 xinverter00.xpfet.              pfet               1.00 
       23 xinverter00.xnfet.              nfet               1.00 
       24 xinverter10.xpfet.              pfet               1.00 
       25 xinverter10.xnfet.              nfet               1.00 
       26 xinverter20.xpfet.              pfet               1.00 
       27 xinverter20.xnfet.              nfet               1.00 
       28 xinverter01.xpfet.              pfet               1.00 
       29 xinverter01.xnfet.              nfet               1.00 
       30 xinverter11.xpfet.              pfet               1.00 
       31 xinverter11.xnfet.              nfet               1.00 
       32 xinverter21.xpfet.              pfet               1.00 
       33 xinverter21.xnfet.              nfet               1.00 
       34 xinverter02.xpfet.              pfet               1.00 
       35 xinverter02.xnfet.              nfet               1.00 
       36 xinverter12.xpfet.              pfet               1.00 
       37 xinverter12.xnfet.              nfet               1.00 
       38 xinverter22.xpfet.              pfet               1.00 
       39 xinverter22.xnfet.              nfet               1.00 
       40 xoutput_00.xpfet.               pfet               1.00 
       41 xoutput_00.xnfet.               nfet               1.00 
       42 xoutput_10.xpfet.               pfet               1.00 
       43 xoutput_10.xnfet.               nfet               1.00 
       44 xoutput_20.xpfet.               pfet               1.00 
       45 xoutput_20.xnfet.               nfet               1.00 
1****** HSPICE -- F-2011.09-SP2 64-BIT (Feb 27 2012) linux ******               
 ******  
 $this uut was automatically generated by:

  ******  mos   model parameters tnom=  25.000 temp=  25.000 *****
 Model Name: pfet 
 BSIM-MG BULK Model(Level72)
   VERSION = 105.03  
   DEVTYPE = -1 
   BULKMOD = 1  
   COREMOD = 0 
   GEOMOD = 1 
   RDSMOD = 1 
   IGCMOD = 1 
   IGBMOD = 1 
   GIDLMOD = 0 
   IIMOD = 0 
   NQSMOD = 0 
   SHMOD = 0 
   RGATEMOD = 0 
   RGEOMOD = 1 
   CGEOMOD = 2 
   CAPMOD = 0 
   LINT =      0 m
   LL =      0 m^(LLN+1)
   LLN =      1 
   DLC =      0 m
   DLBIN =      0 
   LLC =      0 m^(LLN+1)
   EOT = 8.8e-10 m
   TOXP = 1.2e-09 m
   EOTBOX = 1.4e-07 m
   HFIN = 2.1e-08 m
   FECH =      1 
   DELTAW =      0 m
   FECHCV =      1 
   DELTAWCV =      0 m
   NBODY = 2.5e+22 m^-3
   NSD =  3e+26 m^-3
   PHIG =  4.566 eV
   EPSROX =    3.9 
   EPSRSUB =   11.9 
   EASUB =   4.05 eV
   NI0SUB = 1.1e+16 m^-3
   BG0SUB =   1.12 eV
   NC0SUB = 2.86e+25 m^-3
   NGATE =      0 m^-3
   CIT = 1.3e-05 F/m^2
   CDSC =  0.024 F/m^2
   CDSCD =  0.007 F/m^2
   CDSCDR =  0.007 
   DVT0 =   0.01 
   DVT1 =   0.69 
   PHIN =   0.05 V
   ETA0 =   0.57 
   ETA0R =   0.57 
   DSUB =    0.9 
   K1RSCE =      0 V^1/2
   LPE0 =  5e-09 m
   DVTSHIFT =      0 
   QMFACTOR =      0 
   QMTCENIV =      0 
   QMTCENCV =      0 
   AQMTCEN =      0 
   BQMTCEN = 1.2e-08 
   ETAQM =   0.54 
   QM0 = 0.001143 
   PQM =   0.66 
   QM0ACC =  0.001 
   PQMACC =   0.66 
   VSAT = 1.29e+05 
   AVSAT =      0 
   BVSAT =  1e-07 
   VSAT1 = 1.29e+05 
   AVSAT1 =      0 
   BVSAT1 =  1e-07 
   DELTAVSAT =      1 
   KSATIV =    0.8 
   MEXP =      3 
   AMEXP =      0 
   BMEXP =      1 
   PTWG =      0 
   APTWG =      0 
   BPTWG =  1e-07 
   AT = -0.00156 
   TMEXP =      0 
   PTWGT =  0.004 
   U0 =  0.036 
   ETAMOB =      2 
   UP =      0 
   LPA =      1 
   UA =    0.3 
   AUA =      0 
   BUA =  1e-07 
   EU =    1.8 
   AEU =      0 
   BEU =  1e-07 
   UD =      0 
   AUD =      0 
   BUD =  5e-08 
   UCS =      0 
   UTE =      0 
   UTL = -0.0015 
   UA1 = 0.001032 
   UD1 =      0 
   UCSTE = -0.00478 
   RDSWMIN =      0 
   RDSW =    100 
   ARDSW =      0 
   BRDSW =  1e-07 
   RSWMIN =      0 
   RSW =      0 
   ARSW =      0 
   BRSW =  1e-07 
   RDWMIN =      0 
   RDW =      0 
   ARDW =      0 
   BRDW =  1e-07 
   PRWG =      0 
   WR =      1 
   PRT =  0.001 
   PDIBL1 =    1.3 
   PDIBL2 = 0.0002 
   DROUT =   1.06 
   PVAG =      1 
   PCLM =    0.2 
   APCLM =      0 
   BPCLM =  1e-07 
   PCLMG =      0 
   VASAT =    0.6 
   PCLMCV =  0.013 
   PCLMGCV =      0 
   VASATCV =    0.2 
   RGEXT =      0 ohm
   RGFIN =  0.001 ohm
   RSHS =      0 ohm
   RSHD =      0 ohm
   HEPI = 8.5e-09 m
   TSILI =  7e-09 m
   RHOC =  7e-13 ohm/m^2
   RHORSD =      1 ohm/m
   RHOEXT =      1 ohm/m
   CRATIO =    0.5 
   DELTAPRSD =      0 m
   SDTERM = 0 
   LSP = 2.8e-09 m
   LDG =  2e-09 m
   EPSRSP =    3.9 
   TGATE =  8e-09 m
   TMASK =      0 m
   ASILIEND =      0 m^2
   ARSDEND =      0 m^2
   PRSDEND =      0 m
   NSDE =  6e+25 m^-3
   RGEOA =      1 
   RGEOB =      0 m^-1
   RGEOC =      0 m^-1
   RGEOD =      0 m^-1
   RGEOE =      0 m^-1
   CGEOA =      1 
   CGEOB =      0 m^-1
   CGEOC =      0 m^-1
   CGEOD =      0 m^-1
   CGEOE =      1 
   AIGBINV = 0.0111 (Fs^2/g)^0.5m^-1
   BIGBINV =   0.03 (Fs^2/g)^0.5m^-1
   CIGBINV =  0.006 V^-1
   EIGBINV =    1.1 V
   NIGBINV =    1.2 
   AIGBACC = 0.0149 
   BIGBACC = 0.000949 
   CIGBACC =  0.075 
   NIGBACC =      3 
   AIGC = 0.0136 (Fs^2/g)^0.5m^-1
   BIGC = 0.00171 (Fs^2/g)^0.5m^-1V^-1
   CIGC =  0.075 V^-1
   NIGC =      1 
   DLCIGS =      0 m
   AIGS = 0.0136 (Fs^2/g)^0.5m^-1
   BIGS = 0.00171 (Fs^2/g)^0.5m^-1V^-1
   CIGS =  0.075 V^-1
   DLCIGD =      0 m
   AIGD = 0.0136 (Fs^2/g)^0.5m^-1
   BIGD = 0.00171 (Fs^2/g)^0.5m^-1V^-1
   CIGD =  0.075 V^-1
   POXEDGE =      1 
   AGIDL = 5.729e-12 ohm^-1
   BGIDL =  3e+08 V/m
   EGIDL =    0.1 V
   AGISL = 5.729e-12 ohm^-1
   BGISL =  3e+08 V/m
   EGISL =    0.1 V
   ALPHA0 =      0 mV^-1
   ALPHA1 =      0 V^-1
   BETA0 =     30 V^-1
   ALPHAII =      0 
   BETAII0 =      0 V^-1
   BETAII1 =      0 
   BETAII2 =    0.1 V
   ESATII =  1e+07 V/m
   LII =  5e-10 V/m
   SII0 =    0.5 V^-1
   SII1 =    0.1 
   SII2 =      0 V
   SIID =      0 V
   EOTACC = 8.8e-10 m
   DELVFBACC =      0 V
   CFS = 2.56e-11 F/m
   CFD = 2.65e-11 F/m
   COVS = 2.5e-11 F/m
   COVD = 2.5e-11 F/m
   CGSO =      0 F/m
   CGDO =      0 F/m
   CGSL =      0 F/m
   CGDL =      0 F/m
   CKAPPAS =    0.6 V
   CKAPPAD =    0.6 V
   CGBO =      0 F/m
   CGBL =      0 F/m
   CKAPPAB =    0.6 V
   CSDESW =      0 F/m
   CJS = 0.0005 F/m^2
   CJD = 0.0005 F/m^2
   CJSWS =  5e-10 F/m
   CJSWD =  5e-10 F/m
   CJSWGS =      0 F/m
   CJSWGD =      0 F/m
   PBS =      1 V
   PBD =      1 V
   PBSWS =      1 V
   PBSWD =      1 V
   PBSWGS =      1 V
   PBSWGD =      1 V
   MJS, =    0.5 
   MJD =    0.5 
   MJSWS =   0.33 
   MJSWD =   0.33 
   MJSWGS =   0.33 
   MJSWGD =   0.33 
   SJS =      0 
   SJD =      0 
   SJSWS =      0 
   SJSWD =      0 
   SJSWGS =      0 
   SJSWGD =      0 
   MJS2 =  0.125 
   MJD2 =  0.125 
   MJSWS2 =   0.33 
   MJSWD2 =   0.33 
   MJSWGS2 =   0.33 
   MJSWGD2 =   0.33 
   JSS = 0.0001 A/m^2
   JSD = 0.0001 A/m^2
   JSWS =      0 A/m
   JSWD =      0 A/m
   JSWGS =      0 A/m
   JSWGD =      0 A/m
   NJS =      1 
   NJD =      1 
   IJTHSFWD =    0.1 A
   IJTHDFWD =    0.1 A
   IJTHSREV =    0.1 A
   IJTHDREV =    0.1 A
   BVS =     10 V
   BVD =     10 V
   XJBVS =      1 
   XJBVD =      1 
   JTSS =      0 A/m^2
   JTSD =      0 A/m^2
   JTSSWS =      0 A/m
   JTSSWD =      0 A/m
   JTSSWGS =      0 A/m
   JTSSWGD =      0 A/m
   JTWEFF =      0 m
   NJTS =     20 
   NJTSD =     20 
   NJTSSW =     20 
   NJTSSWD =     20 
   NJTSSWG =     20 
   NJTSSWGD =     20 
   VTSS =     10 V
   VTSD =     10 V
   VTSSWS =     10 V
   VTSSWD =     10 V
   VTSSWGS =     10 V
   VTSSWGD =     10 V
   LINTIGEN =      0 m
   NTGEN =      1 
   AIGEN =      0 m^-3V^-1
   BIGEN =      0 m^-3V^-3
   XRCRG1 =     12 
   XRCRG2 =      1 
   NSEG = 5 
   EF =      1 
   EM = 4.1e+07 V/m
   NOIA = 6.25e+39 eV^-1s^1-EFm^-3
   NOIB = 3.125e+24 eV^-1s^1-EFm^-1
   NOIC = 8.75e+07 eV^-1s^1-EFm
   NTNOI =      1 
   TNOM =  300.1 K
   TBGASUB = 0.000702 eV/K
   TBGBSUB =   1108 K
   KT1 =      0 V
   KT1L =      0 Vm
   IIT =   -0.5 
   TII =      0 
   TGIDL = -0.0003 K^-1
   IGT =    2.5 
   TCJ =      0 K^-1
   TCJSW =      0 K^-1
   TCJSWG =      0 K^-1
   TPB =      0 K^-1
   TPBSW =      0 K^-1
   TPBSWG =      0 K^-1
   XTIS =      3 
   XTID =      3 
   XTSS =   0.02 
   XTSD =   0.02 
   XTSSWS =   0.02 
   XTSSWD =   0.02 
   XTSSWGS =   0.02 
   XTSSWGD =   0.02 
   TNJTS =      0 
   TNJTSD =      0 
   TNJTSSW =      0 
   TNJTSSWD =      0 
   TNJTSSWG =      0 
   TNJTSSWGD =      0 
   RTH0 =   0.01 ohm
   CTH0 =  1e-05 F
   WTH0 =      0 m
   LNBODY =      0 
   NNBODY =      0 
   PNBODY =      0 
   LPHIG =      0 
   NPHIG =      0 
   PPHIG =      0 
   LNGATE =      0 
   NNGATE =      0 
   PNGATE =      0 
   LCIT =      0 
   NCIT =      0 
   PCIT =      0 
   LCDSC =      0 
   NCDSC =      0 
   PCDSC =      0 
   LCDSCD =      0 
   NCDSCD =      0 
   PCDSCD =      0 
   LCDSCDR =      0 
   NCDSCDR =      0 
   PCDSCDR =      0 
   LDVT0 =      0 
   NDVT0 =      0 
   PDVT0 =      0 
   LDVT1 =      0 
   NDVT1 =      0 
   PDVT1 =      0 
   LPHIN =      0 
   NPHIN =      0 
   PPHIN =      0 
   LETA0 =      0 
   NETA0 =      0 
   PETA0 =      0 
   LETA0R =      0 
   NETA0R =      0 
   PETA0R =      0 
   LDSUB =      0 
   NDSUB =      0 
   PDSUB =      0 
   LK1RSCE =      0 
   NK1RSCE =      0 
   PK1RSCE =      0 
   LLPE0 =      0 
   NLPE0 =      0 
   PLPE0 =      0 
   LQMFACTOR =      0 
   NQMFACTOR =      0 
   PQMFACTOR =      0 
   LQMTCENIV =      0 
   NQMTCENIV =      0 
   PQMTCENIV =      0 
   LQMTCENCV =      0 
   NQMTCENCV =      0 
   PQMTCENCV =      0 
   LVSAT =      0 
   NVSAT =      0 
   PVSAT =      0 
   LKSATIV =      0 
   NKSATIV =      0 
   PKSATIV =      0 
   LMEXP =      0 
   NMEXP =      0 
   PMEXP =      0 
   LPTWG =      0 
   NPTWG =      0 
   PPTWG =      0 
   LTHETASAT =      0 
   NTHETASAT =      0 
   PTHETASAT =      0 
   LU0 =      0 
   NU0 =      0 
   PU0 =      0 
   LUP =      0 
   NUP =      0 
   PUP =      0 
   LUA =      0 
   NUA =      0 
   PUA =      0 
   LEU =      0 
   NEU =      0 
   PEU =      0 
   LUD =      0 
   NUD =      0 
   PUD =      0 
   LUCS =      0 
   NUCS =      0 
   PUCS =      0 
   LPCLM =      0 
   NPCLM =      0 
   PPCLM =      0 
   LPCLMCV =      0 
   NPCLMCV =      0 
   PPCLMCV =      0 
   LRDSW =      0 
   NRDSW =      0 
   PRDSW =      0 
   LRSW =      0 
   NRSW =      0 
   PRSW =      0 
   LRDW =      0 
   NRDW =      0 
   PRDW =      0 
   LPRWG =      0 
   NPRWG =      0 
   PPRWG =      0 
   LWR =      0 
   NWR =      0 
   PWR =      0 
   LPDIBL1 =      0 
   NPDIBL1 =      0 
   PPDIBL1 =      0 
   LPDIBL2 =      0 
   NPDIBL2 =      0 
   PPDIBL2 =      0 
   LDROUT =      0 
   NDROUT =      0 
   PDROUT =      0 
   LPVAG =      0 
   NPVAG =      0 
   PPVAG =      0 
   LAIGBINV =      0 
   NAIGBINV =      0 
   PAIGBINV =      0 
   LBIGBINV =      0 
   NBIGBINV =      0 
   PBIGBINV =      0 
   LCIGBINV =      0 
   NCIGBINV =      0 
   PCIGBINV =      0 
   LEIGBINV =      0 
   NEIGBINV =      0 
   PEIGBINV =      0 
   LNIGBINV =      0 
   NNIGBINV =      0 
   PNIGBINV =      0 
   LAIGC =      0 
   NAIGC =      0 
   PAIGC =      0 
   LBIGC =      0 
   NBIGC =      0 
   PBIGC =      0 
   LCIGC =      0 
   NCIGC =      0 
   PCIGC =      0 
   LNIGC =      0 
   NNIGC =      0 
   PNIGC =      0 
   LAIGS =      0 
   NAIGS =      0 
   PAIGS =      0 
   LBIGS =      0 
   NBIGS =      0 
   PBIGS =      0 
   LCIGS =      0 
   NCIGS =      0 
   PCIGS =      0 
   LAIGD =      0 
   NAIGD =      0 
   PAIGD =      0 
   LBIGD =      0 
   NBIGD =      0 
   PBIGD =      0 
   LCIGD =      0 
   NCIGD =      0 
   PCIGD =      0 
   LPOXEDGE =      0 
   NPOXEDGE =      0 
   PPOXEDGE =      0 
   LAGIDL =      0 
   NAGIDL =      0 
   PAGIDL =      0 
   LBGIDL =      0 
   NBGIDL =      0 
   PBGIDL =      0 
   LEGIDL =      0 
   NEGIDL =      0 
   PEGIDL =      0 
   LAGISL =      0 
   NAGISL =      0 
   PAGISL =      0 
   LBGISL =      0 
   NBGISL =      0 
   PBGISL =      0 
   LEGISL =      0 
   NEGISL =      0 
   PEGISL =      0 
   LALPHA0 =      0 
   NALPHA0 =      0 
   PALPHA0 =      0 
   LALPHA1 =      0 
   NALPHA1 =      0 
   PALPHA1 =      0 
   LBETA0 =      0 
   NBETA0 =      0 
   PBETA0 =      0 
   LALPHAII =      0 
   NALPHAII =      0 
   PALPHAII =      0 
   LBETAII0 =      0 
   NBETAII0 =      0 
   PBETAII0 =      0 
   LBETAII1 =      0 
   NBETAII1 =      0 
   PBETAII1 =      0 
   LBETAII2 =      0 
   NBETAII2 =      0 
   PBETAII2 =      0 
   LESATII =      0 
   NESATII =      0 
   PESATII =      0 
   LLII =      0 
   NLII =      0 
   PLII =      0 
   LSII0 =      0 
   NSII0 =      0 
   PSII0 =      0 
   LSII1 =      0 
   NSII1 =      0 
   PSII1 =      0 
   LSII2 =      0 
   NSII2 =      0 
   PSII2 =      0 
   LSIID =      0 
   NSIID =      0 
   PSIID =      0 
   LCFS =      0 
   NCFS =      0 
   PCFS =      0 
   LCFD =      0 
   NCFD =      0 
   PCFD =      0 
   LCOVS =      0 
   NCOVS =      0 
   PCOVS =      0 
   LCOVD =      0 
   NCOVD =      0 
   PCOVD =      0 
   LCGSL =      0 
   NCGSL =      0 
   PCGSL =      0 
   LCGDL =      0 
   NCGDL =      0 
   PCGDL =      0 
   LCKAPPAS =      0 
   NCKAPPAS =      0 
   PCKAPPAS =      0 
   LCKAPPAD =      0 
   NCKAPPAD =      0 
   PCKAPPAD =      0 
   LCGBL =      0 
   NCGBL =      0 
   PCGBL =      0 
   LCKAPPAB =      0 
   NCKAPPAB =      0 
   PCKAPPAB =      0 
   LNTGEN =      0 
   NNTGEN =      0 
   PNTGEN =      0 
   LAIGEN =      0 
   NAIGEN =      0 
   PAIGEN =      0 
   LBIGEN =      0 
   NBIGEN =      0 
   PBIGEN =      0 
   LXRCRG1 =      0 
   NXRCRG1 =      0 
   PXRCRG1 =      0 
   LXRCRG2 =      0 
   NXRCRG2 =      0 
   PXRCRG2 =      0 
   LINTNOI =      0 
   NINTNOI =      0 
   PINTNOI =      0 
   LUTE =      0 
   NUTE =      0 
   PUTE =      0 
   LUTL =      0 
   NUTL =      0 
   PUTL =      0 
   LUA1 =      0 
   NUA1 =      0 
   PUA1 =      0 
   LUD1 =      0 
   NUD1 =      0 
   PUD1 =      0 
   LUCSTE =      0 
   NUCSTE =      0 
   PUCSTE =      0 
   LPTWGT =      0 
   NPTWGT =      0 
   PPTWGT =      0 
   LAT =      0 
   NAT =      0 
   PAT =      0 
   LSTTHETASAT =      0 
   NSTTHETASAT =      0 
   PSTTHETASAT =      0 
   LPRT =      0 
   NPRT =      0 
   PPRT =      0 
   LIIT =      0 
   NIIT =      0 
   PIIT =      0 
   LTII =      0 
   NTII =      0 
   PTII =      0 
   LTGIDL =      0 
   NTGIDL =      0 
   PTGIDL =      0 
   LIGT =      0 
   NIGT =      0 
   PIGT =      0 
   L = 1.4e-08 m
   D =  4e-08 m
   TFIN =  8e-09 m
   FPITCH = 2.8e-08 m
   NF = 1 
   NFIN = 1 
   NGCON = 1 
   ASEO =      0 m^2
   ADEO =      0 m^2
   PSEO =      0 m
   PDEO =      0 m
   ASEJ =      0 m^2
   ADEJ =      0 m^2
   PSEJ =      0 m
   PDEJ =      0 m
   CGSP =      0 F
   CGDP =      0 F
   CDSP =      0 F
   NRS =      0 
   NRD =      0 
   LRSD = 1.4e-08 m
   XL =      0 m
   DELVTRAND =      0 
   U0MULT =      1 
   IDS0MULT =      1 
   Lmin =  1e-08 m
   Lmax =  3e-08 m
   NFINmin = 0 
   NFINmax = 1 
   LVSAT1 =      0 
   NVSAT1 =      0 
   PVSAT1 =      0 
   LETAMOB =      0 
   NETAMOB =      0 
   PETAMOB =      0 
   LPCLMG =      0 
   NPCLMG =      0 
   PPCLMG =      0 
   LVASAT =      0 
   NVASAT =      0 
   PVASAT =      0 
   LAIGBACC =      0 
   NAIGBACC =      0 
   PAIGBACC =      0 
   LBIGBACC =      0 
   NBIGBACC =      0 
   PBIGBACC =      0 
   LCIGBACC =      0 
   NCIGBACC =      0 
   PCIGBACC =      0 
   LNIGBACC =      0 
   NNIGBACC =      0 
   PNIGBACC =      0 
 Model Name: nfet 
 BSIM-MG BULK Model(Level72)
   VERSION = 105.03  
   DEVTYPE = 1 
   BULKMOD = 1  
   COREMOD = 0 
   GEOMOD = 1 
   RDSMOD = 1 
   IGCMOD = 1 
   IGBMOD = 1 
   GIDLMOD = 0 
   IIMOD = 0 
   NQSMOD = 0 
   SHMOD = 0 
   RGATEMOD = 0 
   RGEOMOD = 1 
   CGEOMOD = 2 
   CAPMOD = 0 
   LINT =      0 m
   LL =      0 m^(LLN+1)
   LLN =      1 
   DLC =      0 m
   DLBIN =      0 
   LLC =      0 m^(LLN+1)
   EOT = 8.8e-10 m
   TOXP = 1.2e-09 m
   EOTBOX = 1.4e-07 m
   HFIN = 2.1e-08 m
   FECH =      1 
   DELTAW =      0 m
   FECHCV =      1 
   DELTAWCV =      0 m
   NBODY = 2.5e+22 m^-3
   NSD =  3e+26 m^-3
   PHIG =  4.604 eV
   EPSROX =    3.9 
   EPSRSUB =   11.9 
   EASUB =   4.05 eV
   NI0SUB = 1.1e+16 m^-3
   BG0SUB =   1.12 eV
   NC0SUB = 2.86e+25 m^-3
   NGATE =      0 m^-3
   CIT = 1.3e-05 F/m^2
   CDSC =  0.022 F/m^2
   CDSCD =  0.007 F/m^2
   CDSCDR =  0.007 
   DVT0 =   0.01 
   DVT1 =   0.69 
   PHIN =   0.05 V
   ETA0 = 0.4079 
   ETA0R = 0.4079 
   DSUB =    0.9 
   K1RSCE =      0 V^1/2
   LPE0 =  5e-09 m
   DVTSHIFT =      0 
   QMFACTOR =      0 
   QMTCENIV =      0 
   QMTCENCV =      0 
   AQMTCEN =      0 
   BQMTCEN = 1.2e-08 
   ETAQM =   0.54 
   QM0 = 0.001143 
   PQM =   0.66 
   QM0ACC =  0.001 
   PQMACC =   0.66 
   VSAT = 1.32e+05 
   AVSAT =      0 
   BVSAT =  1e-07 
   VSAT1 = 1.32e+05 
   AVSAT1 =      0 
   BVSAT1 =  1e-07 
   DELTAVSAT =      1 
   KSATIV =    0.8 
   MEXP =      3 
   AMEXP =      0 
   BMEXP =      1 
   PTWG =      0 
   APTWG =      0 
   BPTWG =  1e-07 
   AT = -0.00156 
   TMEXP =      0 
   PTWGT =  0.004 
   U0 = 0.0568 
   ETAMOB =      2 
   UP =      0 
   LPA =      1 
   UA =    0.3 
   AUA =      0 
   BUA =  1e-07 
   EU =    1.8 
   AEU =      0 
   BEU =  1e-07 
   UD =      0 
   AUD =      0 
   BUD =  5e-08 
   UCS =      0 
   UTE =      0 
   UTL = -0.0015 
   UA1 = 0.001032 
   UD1 =      0 
   UCSTE = -0.00478 
   RDSWMIN =      0 
   RDSW =    100 
   ARDSW =      0 
   BRDSW =  1e-07 
   RSWMIN =      0 
   RSW =      0 
   ARSW =      0 
   BRSW =  1e-07 
   RDWMIN =      0 
   RDW =      0 
   ARDW =      0 
   BRDW =  1e-07 
   PRWG =      0 
   WR =      1 
   PRT =  0.001 
   PDIBL1 =    1.3 
   PDIBL2 = 0.0002 
   DROUT =   1.06 
   PVAG =      1 
   PCLM =    0.2 
   APCLM =      0 
   BPCLM =  1e-07 
   PCLMG =      0 
   VASAT =    0.6 
   PCLMCV =  0.013 
   PCLMGCV =      0 
   VASATCV =    0.2 
   RGEXT =      0 ohm
   RGFIN =  0.001 ohm
   RSHS =      0 ohm
   RSHD =      0 ohm
   HEPI = 8.5e-09 m
   TSILI =  7e-09 m
   RHOC =  6e-13 ohm/m^2
   RHORSD =      1 ohm/m
   RHOEXT =      1 ohm/m
   CRATIO =    0.5 
   DELTAPRSD =      0 m
   SDTERM = 0 
   LSP = 2.8e-09 m
   LDG =  2e-09 m
   EPSRSP =    3.9 
   TGATE =  8e-09 m
   TMASK =      0 m
   ASILIEND =      0 m^2
   ARSDEND =      0 m^2
   PRSDEND =      0 m
   NSDE =  6e+25 m^-3
   RGEOA =      1 
   RGEOB =      0 m^-1
   RGEOC =      0 m^-1
   RGEOD =      0 m^-1
   RGEOE =      0 m^-1
   CGEOA =      1 
   CGEOB =      0 m^-1
   CGEOC =      0 m^-1
   CGEOD =      0 m^-1
   CGEOE =      1 
   AIGBINV = 0.0111 (Fs^2/g)^0.5m^-1
   BIGBINV =   0.03 (Fs^2/g)^0.5m^-1
   CIGBINV =  0.006 V^-1
   EIGBINV =    1.1 V
   NIGBINV =    1.2 
   AIGBACC = 0.0149 
   BIGBACC = 0.000949 
   CIGBACC =  0.075 
   NIGBACC =      3 
   AIGC = 0.0136 (Fs^2/g)^0.5m^-1
   BIGC = 0.00171 (Fs^2/g)^0.5m^-1V^-1
   CIGC =  0.075 V^-1
   NIGC =      1 
   DLCIGS =      0 m
   AIGS = 0.0136 (Fs^2/g)^0.5m^-1
   BIGS = 0.00171 (Fs^2/g)^0.5m^-1V^-1
   CIGS =  0.075 V^-1
   DLCIGD =      0 m
   AIGD = 0.0136 (Fs^2/g)^0.5m^-1
   BIGD = 0.00171 (Fs^2/g)^0.5m^-1V^-1
   CIGD =  0.075 V^-1
   POXEDGE =      1 
   AGIDL = 5.729e-12 ohm^-1
   BGIDL =  3e+08 V/m
   EGIDL =    0.1 V
   AGISL = 5.729e-12 ohm^-1
   BGISL =  3e+08 V/m
   EGISL =    0.1 V
   ALPHA0 =      0 mV^-1
   ALPHA1 =      0 V^-1
   BETA0 =     30 V^-1
   ALPHAII =      0 
   BETAII0 =      0 V^-1
   BETAII1 =      0 
   BETAII2 =    0.1 V
   ESATII =  1e+07 V/m
   LII =  5e-10 V/m
   SII0 =    0.5 V^-1
   SII1 =    0.1 
   SII2 =      0 V
   SIID =      0 V
   EOTACC = 8.8e-10 m
   DELVFBACC =      0 V
   CFS = 2.56e-11 F/m
   CFD = 2.65e-11 F/m
   COVS = 2.5e-11 F/m
   COVD = 2.5e-11 F/m
   CGSO =      0 F/m
   CGDO =      0 F/m
   CGSL =      0 F/m
   CGDL =      0 F/m
   CKAPPAS =    0.6 V
   CKAPPAD =    0.6 V
   CGBO =      0 F/m
   CGBL =      0 F/m
   CKAPPAB =    0.6 V
   CSDESW =      0 F/m
   CJS = 0.0005 F/m^2
   CJD = 0.0005 F/m^2
   CJSWS =  5e-10 F/m
   CJSWD =  5e-10 F/m
   CJSWGS =      0 F/m
   CJSWGD =      0 F/m
   PBS =      1 V
   PBD =      1 V
   PBSWS =      1 V
   PBSWD =      1 V
   PBSWGS =      1 V
   PBSWGD =      1 V
   MJS, =    0.5 
   MJD =    0.5 
   MJSWS =   0.33 
   MJSWD =   0.33 
   MJSWGS =   0.33 
   MJSWGD =   0.33 
   SJS =      0 
   SJD =      0 
   SJSWS =      0 
   SJSWD =      0 
   SJSWGS =      0 
   SJSWGD =      0 
   MJS2 =  0.125 
   MJD2 =  0.125 
   MJSWS2 =   0.33 
   MJSWD2 =   0.33 
   MJSWGS2 =   0.33 
   MJSWGD2 =   0.33 
   JSS = 0.0001 A/m^2
   JSD = 0.0001 A/m^2
   JSWS =      0 A/m
   JSWD =      0 A/m
   JSWGS =      0 A/m
   JSWGD =      0 A/m
   NJS =      1 
   NJD =      1 
   IJTHSFWD =    0.1 A
   IJTHDFWD =    0.1 A
   IJTHSREV =    0.1 A
   IJTHDREV =    0.1 A
   BVS =     10 V
   BVD =     10 V
   XJBVS =      1 
   XJBVD =      1 
   JTSS =      0 A/m^2
   JTSD =      0 A/m^2
   JTSSWS =      0 A/m
   JTSSWD =      0 A/m
   JTSSWGS =      0 A/m
   JTSSWGD =      0 A/m
   JTWEFF =      0 m
   NJTS =     20 
   NJTSD =     20 
   NJTSSW =     20 
   NJTSSWD =     20 
   NJTSSWG =     20 
   NJTSSWGD =     20 
   VTSS =     10 V
   VTSD =     10 V
   VTSSWS =     10 V
   VTSSWD =     10 V
   VTSSWGS =     10 V
   VTSSWGD =     10 V
   LINTIGEN =      0 m
   NTGEN =      1 
   AIGEN =      0 m^-3V^-1
   BIGEN =      0 m^-3V^-3
   XRCRG1 =     12 
   XRCRG2 =      1 
   NSEG = 5 
   EF =      1 
   EM = 4.1e+07 V/m
   NOIA = 6.25e+39 eV^-1s^1-EFm^-3
   NOIB = 3.125e+24 eV^-1s^1-EFm^-1
   NOIC = 8.75e+07 eV^-1s^1-EFm
   NTNOI =      1 
   TNOM =  300.1 K
   TBGASUB = 0.000702 eV/K
   TBGBSUB =   1108 K
   KT1 =      0 V
   KT1L =      0 Vm
   IIT =   -0.5 
   TII =      0 
   TGIDL = -0.0003 K^-1
   IGT =    2.5 
   TCJ =      0 K^-1
   TCJSW =      0 K^-1
   TCJSWG =      0 K^-1
   TPB =      0 K^-1
   TPBSW =      0 K^-1
   TPBSWG =      0 K^-1
   XTIS =      3 
   XTID =      3 
   XTSS =   0.02 
   XTSD =   0.02 
   XTSSWS =   0.02 
   XTSSWD =   0.02 
   XTSSWGS =   0.02 
   XTSSWGD =   0.02 
   TNJTS =      0 
   TNJTSD =      0 
   TNJTSSW =      0 
   TNJTSSWD =      0 
   TNJTSSWG =      0 
   TNJTSSWGD =      0 
   RTH0 =   0.01 ohm
   CTH0 =  1e-05 F
   WTH0 =      0 m
   LNBODY =      0 
   NNBODY =      0 
   PNBODY =      0 
   LPHIG =      0 
   NPHIG =      0 
   PPHIG =      0 
   LNGATE =      0 
   NNGATE =      0 
   PNGATE =      0 
   LCIT =      0 
   NCIT =      0 
   PCIT =      0 
   LCDSC =      0 
   NCDSC =      0 
   PCDSC =      0 
   LCDSCD =      0 
   NCDSCD =      0 
   PCDSCD =      0 
   LCDSCDR =      0 
   NCDSCDR =      0 
   PCDSCDR =      0 
   LDVT0 =      0 
   NDVT0 =      0 
   PDVT0 =      0 
   LDVT1 =      0 
   NDVT1 =      0 
   PDVT1 =      0 
   LPHIN =      0 
   NPHIN =      0 
   PPHIN =      0 
   LETA0 =      0 
   NETA0 =      0 
   PETA0 =      0 
   LETA0R =      0 
   NETA0R =      0 
   PETA0R =      0 
   LDSUB =      0 
   NDSUB =      0 
   PDSUB =      0 
   LK1RSCE =      0 
   NK1RSCE =      0 
   PK1RSCE =      0 
   LLPE0 =      0 
   NLPE0 =      0 
   PLPE0 =      0 
   LQMFACTOR =      0 
   NQMFACTOR =      0 
   PQMFACTOR =      0 
   LQMTCENIV =      0 
   NQMTCENIV =      0 
   PQMTCENIV =      0 
   LQMTCENCV =      0 
   NQMTCENCV =      0 
   PQMTCENCV =      0 
   LVSAT =      0 
   NVSAT =      0 
   PVSAT =      0 
   LKSATIV =      0 
   NKSATIV =      0 
   PKSATIV =      0 
   LMEXP =      0 
   NMEXP =      0 
   PMEXP =      0 
   LPTWG =      0 
   NPTWG =      0 
   PPTWG =      0 
   LTHETASAT =      0 
   NTHETASAT =      0 
   PTHETASAT =      0 
   LU0 =      0 
   NU0 =      0 
   PU0 =      0 
   LUP =      0 
   NUP =      0 
   PUP =      0 
   LUA =      0 
   NUA =      0 
   PUA =      0 
   LEU =      0 
   NEU =      0 
   PEU =      0 
   LUD =      0 
   NUD =      0 
   PUD =      0 
   LUCS =      0 
   NUCS =      0 
   PUCS =      0 
   LPCLM =      0 
   NPCLM =      0 
   PPCLM =      0 
   LPCLMCV =      0 
   NPCLMCV =      0 
   PPCLMCV =      0 
   LRDSW =      0 
   NRDSW =      0 
   PRDSW =      0 
   LRSW =      0 
   NRSW =      0 
   PRSW =      0 
   LRDW =      0 
   NRDW =      0 
   PRDW =      0 
   LPRWG =      0 
   NPRWG =      0 
   PPRWG =      0 
   LWR =      0 
   NWR =      0 
   PWR =      0 
   LPDIBL1 =      0 
   NPDIBL1 =      0 
   PPDIBL1 =      0 
   LPDIBL2 =      0 
   NPDIBL2 =      0 
   PPDIBL2 =      0 
   LDROUT =      0 
   NDROUT =      0 
   PDROUT =      0 
   LPVAG =      0 
   NPVAG =      0 
   PPVAG =      0 
   LAIGBINV =      0 
   NAIGBINV =      0 
   PAIGBINV =      0 
   LBIGBINV =      0 
   NBIGBINV =      0 
   PBIGBINV =      0 
   LCIGBINV =      0 
   NCIGBINV =      0 
   PCIGBINV =      0 
   LEIGBINV =      0 
   NEIGBINV =      0 
   PEIGBINV =      0 
   LNIGBINV =      0 
   NNIGBINV =      0 
   PNIGBINV =      0 
   LAIGC =      0 
   NAIGC =      0 
   PAIGC =      0 
   LBIGC =      0 
   NBIGC =      0 
   PBIGC =      0 
   LCIGC =      0 
   NCIGC =      0 
   PCIGC =      0 
   LNIGC =      0 
   NNIGC =      0 
   PNIGC =      0 
   LAIGS =      0 
   NAIGS =      0 
   PAIGS =      0 
   LBIGS =      0 
   NBIGS =      0 
   PBIGS =      0 
   LCIGS =      0 
   NCIGS =      0 
   PCIGS =      0 
   LAIGD =      0 
   NAIGD =      0 
   PAIGD =      0 
   LBIGD =      0 
   NBIGD =      0 
   PBIGD =      0 
   LCIGD =      0 
   NCIGD =      0 
   PCIGD =      0 
   LPOXEDGE =      0 
   NPOXEDGE =      0 
   PPOXEDGE =      0 
   LAGIDL =      0 
   NAGIDL =      0 
   PAGIDL =      0 
   LBGIDL =      0 
   NBGIDL =      0 
   PBGIDL =      0 
   LEGIDL =      0 
   NEGIDL =      0 
   PEGIDL =      0 
   LAGISL =      0 
   NAGISL =      0 
   PAGISL =      0 
   LBGISL =      0 
   NBGISL =      0 
   PBGISL =      0 
   LEGISL =      0 
   NEGISL =      0 
   PEGISL =      0 
   LALPHA0 =      0 
   NALPHA0 =      0 
   PALPHA0 =      0 
   LALPHA1 =      0 
   NALPHA1 =      0 
   PALPHA1 =      0 
   LBETA0 =      0 
   NBETA0 =      0 
   PBETA0 =      0 
   LALPHAII =      0 
   NALPHAII =      0 
   PALPHAII =      0 
   LBETAII0 =      0 
   NBETAII0 =      0 
   PBETAII0 =      0 
   LBETAII1 =      0 
   NBETAII1 =      0 
   PBETAII1 =      0 
   LBETAII2 =      0 
   NBETAII2 =      0 
   PBETAII2 =      0 
   LESATII =      0 
   NESATII =      0 
   PESATII =      0 
   LLII =      0 
   NLII =      0 
   PLII =      0 
   LSII0 =      0 
   NSII0 =      0 
   PSII0 =      0 
   LSII1 =      0 
   NSII1 =      0 
   PSII1 =      0 
   LSII2 =      0 
   NSII2 =      0 
   PSII2 =      0 
   LSIID =      0 
   NSIID =      0 
   PSIID =      0 
   LCFS =      0 
   NCFS =      0 
   PCFS =      0 
   LCFD =      0 
   NCFD =      0 
   PCFD =      0 
   LCOVS =      0 
   NCOVS =      0 
   PCOVS =      0 
   LCOVD =      0 
   NCOVD =      0 
   PCOVD =      0 
   LCGSL =      0 
   NCGSL =      0 
   PCGSL =      0 
   LCGDL =      0 
   NCGDL =      0 
   PCGDL =      0 
   LCKAPPAS =      0 
   NCKAPPAS =      0 
   PCKAPPAS =      0 
   LCKAPPAD =      0 
   NCKAPPAD =      0 
   PCKAPPAD =      0 
   LCGBL =      0 
   NCGBL =      0 
   PCGBL =      0 
   LCKAPPAB =      0 
   NCKAPPAB =      0 
   PCKAPPAB =      0 
   LNTGEN =      0 
   NNTGEN =      0 
   PNTGEN =      0 
   LAIGEN =      0 
   NAIGEN =      0 
   PAIGEN =      0 
   LBIGEN =      0 
   NBIGEN =      0 
   PBIGEN =      0 
   LXRCRG1 =      0 
   NXRCRG1 =      0 
   PXRCRG1 =      0 
   LXRCRG2 =      0 
   NXRCRG2 =      0 
   PXRCRG2 =      0 
   LINTNOI =      0 
   NINTNOI =      0 
   PINTNOI =      0 
   LUTE =      0 
   NUTE =      0 
   PUTE =      0 
   LUTL =      0 
   NUTL =      0 
   PUTL =      0 
   LUA1 =      0 
   NUA1 =      0 
   PUA1 =      0 
   LUD1 =      0 
   NUD1 =      0 
   PUD1 =      0 
   LUCSTE =      0 
   NUCSTE =      0 
   PUCSTE =      0 
   LPTWGT =      0 
   NPTWGT =      0 
   PPTWGT =      0 
   LAT =      0 
   NAT =      0 
   PAT =      0 
   LSTTHETASAT =      0 
   NSTTHETASAT =      0 
   PSTTHETASAT =      0 
   LPRT =      0 
   NPRT =      0 
   PPRT =      0 
   LIIT =      0 
   NIIT =      0 
   PIIT =      0 
   LTII =      0 
   NTII =      0 
   PTII =      0 
   LTGIDL =      0 
   NTGIDL =      0 
   PTGIDL =      0 
   LIGT =      0 
   NIGT =      0 
   PIGT =      0 
   L = 1.4e-08 m
   D =  4e-08 m
   TFIN =  8e-09 m
   FPITCH = 2.8e-08 m
   NF = 1 
   NFIN = 1 
   NGCON = 1 
   ASEO =      0 m^2
   ADEO =      0 m^2
   PSEO =      0 m
   PDEO =      0 m
   ASEJ =      0 m^2
   ADEJ =      0 m^2
   PSEJ =      0 m
   PDEJ =      0 m
   CGSP =      0 F
   CGDP =      0 F
   CDSP =      0 F
   NRS =      0 
   NRD =      0 
   LRSD = 1.4e-08 m
   XL =      0 m
   DELVTRAND =      0 
   U0MULT =      1 
   IDS0MULT =      1 
   Lmin =  1e-08 m
   Lmax =  3e-08 m
   NFINmin = 0 
   NFINmax = 1 
   LVSAT1 =      0 
   NVSAT1 =      0 
   PVSAT1 =      0 
   LETAMOB =      0 
   NETAMOB =      0 
   PETAMOB =      0 
   LPCLMG =      0 
   NPCLMG =      0 
   PPCLMG =      0 
   LVASAT =      0 
   NVASAT =      0 
   PVASAT =      0 
   LAIGBACC =      0 
   NAIGBACC =      0 
   PAIGBACC =      0 
   LBIGBACC =      0 
   NBIGBACC =      0 
   PBIGBACC =      0 
   LCIGBACC =      0 
   NCIGBACC =      0 
   PCIGBACC =      0 
   LNIGBACC =      0 
   NNIGBACC =      0 
   PNIGBACC =      0 
  **info** (ptm10lstp.sp:15) DC voltage reset to initial transient source value              in source        0:vin_0               new dc=  0.7500D+00
  
 **warning**  No DC path to ground from node        0:outin_40         defined in subckt 0               ; Connected by HSPICE with gdcpath


      
 **info** set option symb=1 internally to help for convergence.
 *****************************************************************
 ******  option summary
 ******
 runlvl  = 3         bypass  = 2         
  Opening plot unit= 15
 file=ptm10lstp.pa0                                                            

1****** HSPICE -- F-2011.09-SP2 64-BIT (Feb 27 2012) linux ******               
 ******  
 $this uut was automatically generated by:

  ******  operating point information tnom=  25.000 temp=  25.000 *****
 ***** operating point status is voltage   simulation time is     0.     
     node    =voltage       node    =voltage       node    =voltage

 + 0:inb_0   = 750.0000m  0:inb_1   = 750.0000m  0:inb_2   = 750.0000m
 + 0:outb_00 = 749.9968m  0:outb_10 = 749.9968m  0:outb_20 = 749.9968m
 + 0:outin_00=   3.2808u  0:outin_01=   3.2808u  0:outin_02=   3.2808u
 + 0:outin_10= 749.9974m  0:outin_11= 749.9974m  0:outin_12= 749.9974m
 + 0:outin_20=   3.2810u  0:outin_21=   3.2810u  0:outin_22=   3.2810u
 + 0:outin_30= 749.9974m  0:outin_31= 749.9974m  0:outin_32= 749.9974m
 + 0:outin_40=   8.1742m  0:outin_41=   8.1742m  0:outin_42=   8.1742m
 + 0:vdd     = 750.0000m

 ******  
 $this uut was automatically generated by:

  ******  transient analysis tnom=  25.000 temp=  25.000 *****
 trf_delay_001=   4.5532p  targ=  36.3804p   trig=  31.8272p
 tfr_delay_001=   4.5469p  targ=   1.0848n   trig=   1.0802n
 trf_delay_002=   4.1605p  targ=   2.0352n   trig=   2.0310n
 tfr_delay_002=   4.6601p  targ=   3.0851n   trig=   3.0804n
 trf_delay_003=   4.4948p  targ=   4.0350n   trig=   4.0305n
 tfr_delay_003= 115.8874p  targ=   4.1683n   trig=   4.0524n
 trf_delay_004= 168.5783p  targ=   4.2221n   trig=   4.0536n
 tfr_delay_004= 256.9660p  targ=   4.3717n   trig=   4.1148n
 trf_delay_101=   3.3137p  targ=   1.0881n   trig=   1.0848n
 tfr_delay_101=   3.1238p  targ=  39.5042p   trig=  36.3804p
 trf_delay_102=   3.1372p  targ=   3.0882n   trig=   3.0851n
 tfr_delay_102=   4.2331p  targ=   2.0394n   trig=   2.0352n
 trf_delay_103=   5.2781p  targ=   4.1736n   trig=   4.1683n
 tfr_delay_103=   3.3850p  targ=   4.0384n   trig=   4.0350n
 trf_delay_104=  -3.1037p  targ=   4.3686n   trig=   4.3717n
 tfr_delay_104=  -8.4649p  targ=   4.2137n   trig=   4.2221n
 trf_delay_201=   1.6217p  targ=  41.1258p   trig=  39.5042p
 tfr_delay_201=   1.6691p  targ=   1.0897n   trig=   1.0881n
 trf_delay_202= 482.9170f  targ=   2.0399n   trig=   2.0394n
 tfr_delay_202=   1.7446p  targ=   3.0899n   trig=   3.0882n
 trf_delay_203=   2.0190p  targ=   4.0404n   trig=   4.0384n
 tfr_delay_203=  -4.2894p  targ=   4.1693n   trig=   4.1736n
 trf_delay_204=   4.8521p  targ=   4.2185n   trig=   4.2137n
 tfr_delay_204=  -7.3518p  targ=   4.3613n   trig=   4.3686n
 trf_delay_011=   4.5532p  targ=  36.3804p   trig=  31.8272p
 tfr_delay_011=   4.7805p  targ=   2.0864n   trig=   2.0816n
 trf_delay_012=   4.4948p  targ=   4.0350n   trig=   4.0305n
 tfr_delay_012= 110.6123p  targ=   4.1630n   trig=   4.0524n
 trf_delay_111=   2.0722p  targ=   2.0885n   trig=   2.0864n
 tfr_delay_111=   3.1238p  targ=  39.5042p   trig=  36.3804p
 trf_delay_112=  10.6202p  targ=   4.1736n   trig=   4.1630n
 tfr_delay_112=   3.3851p  targ=   4.0384n   trig=   4.0350n
 trf_delay_211=   1.6217p  targ=  41.1258p   trig=  39.5042p
 tfr_delay_211=   2.3457p  targ=   2.0908n   trig=   2.0885n
 trf_delay_212=   2.0188p  targ=   4.0404n   trig=   4.0384n
 tfr_delay_212=  -3.0801p  targ=   4.1706n   trig=   4.1736n
 trf_delay_021=   4.5532p  targ=  36.3804p   trig=  31.8272p
 tfr_delay_021=   5.6213p  targ=   4.0855n   trig=   4.0799n
 trf_delay_121= 939.7839f  targ=   4.0864n   trig=   4.0855n
 tfr_delay_121=   3.1238p  targ=  39.5042p   trig=  36.3804p
 trf_delay_221=   1.6217p  targ=  41.1258p   trig=  39.5042p
 tfr_delay_221=-371.1346f  targ=   4.0861n   trig=   4.0864n
x

        time    voltage      voltage    
                 outin_00     outin_10  
    0.            3.2808u    749.9974m  
   10.00000p     -2.2270m    750.0254m  
   20.00000p     24.3286m    750.8417m  
   30.00000p    296.2854m    754.9021m  
   40.00000p    714.6633m     50.1271m  
   50.00000p    747.1743m    383.0188u  
   60.00000p    749.9992m     24.5121u  
   70.00000p    749.9940m    -15.1556u  
   80.00000p    749.9964m     -2.7987u  
   90.00000p    749.9988m      9.5581u  
  100.00000p    750.0011m     21.2762u  
  110.00000p    749.9999m     15.7054u  
  120.00000p    749.9987m     10.1347u  
  130.00000p    749.9976m      4.5639u  
  140.00000p    749.9964m     -1.0068u  
  150.00000p    749.9952m     -6.5775u  
  160.00000p    749.9941m    -12.1483u  
  170.00000p    749.9938m    -13.2733u  
  180.00000p    749.9943m    -10.9735u  
  190.00000p    749.9948m     -8.6737u  
  200.00000p    749.9953m     -6.3738u  
  210.00000p    749.9958m     -4.0740u  
  220.00000p    749.9963m     -1.7742u  
  230.00000p    749.9968m    525.6361n  
  240.00000p    749.9973m      2.8255u  
  250.00000p    749.9978m      5.1253u  
  260.00000p    749.9983m      7.4251u  
  270.00000p    749.9988m      9.7249u  
  280.00000p    749.9993m     12.0248u  
  290.00000p    749.9998m     14.3246u  
  300.00000p    750.0003m     16.6244u  
  310.00000p    750.0008m     18.9242u  
  320.00000p    750.0012m     20.8797u  
  330.00000p    750.0010m     19.7245u  
  340.00000p    750.0007m     18.5693u  
  350.00000p    750.0005m     17.4141u  
  360.00000p    750.0002m     16.2589u  
  370.00000p    749.9999m     15.1037u  
  380.00000p    749.9997m     13.9485u  
  390.00000p    749.9994m     12.7933u  
  400.00000p    749.9992m     11.6381u  
  410.00000p    749.9989m     10.4829u  
  420.00000p    749.9987m      9.3277u  
  430.00000p    749.9984m      8.1725u  
  440.00000p    749.9982m      7.0173u  
  450.00000p    749.9979m      5.8621u  
  460.00000p    749.9977m      4.7069u  
  470.00000p    749.9974m      3.5517u  
  480.00000p    749.9972m      2.3965u  
  490.00000p    749.9969m      1.2413u  
  500.00000p    749.9967m      0.       
  510.00000p    749.9964m     -1.0691u  
  520.00000p    749.9962m     -2.2243u  
  530.00000p    749.9959m     -3.3795u  
  540.00000p    749.9957m     -4.5347u  
  550.00000p    749.9954m     -5.6899u  
  560.00000p    749.9951m     -6.8451u  
  570.00000p    749.9949m     -8.0003u  
  580.00000p    749.9946m     -9.1555u  
  590.00000p    749.9944m    -10.3107u  
  600.00000p    749.9941m    -11.4659u  
  610.00000p    749.9939m    -12.6211u  
  620.00000p    749.9936m    -13.7763u  
  630.00000p    749.9936m    -13.9571u  
  640.00000p    749.9938m    -13.1278u  
  650.00000p    749.9940m    -12.2984u  
  660.00000p    749.9941m    -11.4691u  
  670.00000p    749.9943m    -10.6398u  
  680.00000p    749.9945m     -9.8105u  
  690.00000p    749.9947m     -8.9811u  
  700.00000p    749.9949m     -8.1518u  
  710.00000p    749.9951m     -7.3225u  
  720.00000p    749.9952m     -6.4932u  
  730.00000p    749.9954m     -5.6639u  
  740.00000p    749.9956m     -4.8345u  
  750.00000p    749.9958m     -4.0052u  
  760.00000p    749.9960m     -3.1759u  
  770.00000p    749.9962m     -2.3466u  
  780.00000p    749.9963m     -1.5172u  
  790.00000p    749.9965m   -687.9175n  
  800.00000p    749.9967m      0.       
  810.00000p    749.9969m    970.7276n  
  820.00000p    749.9971m      1.8001u  
  830.00000p    749.9972m      2.6294u  
  840.00000p    749.9974m      3.4587u  
  850.00000p    749.9976m      4.2880u  
  860.00000p    749.9978m      5.1173u  
  870.00000p    749.9980m      5.9467u  
  880.00000p    749.9982m      6.7760u  
  890.00000p    749.9983m      7.6053u  
  900.00000p    749.9985m      8.4346u  
  910.00000p    749.9987m      9.2640u  
  920.00000p    749.9989m     10.0933u  
  930.00000p    749.9991m     10.9226u  
  940.00000p    749.9993m     11.7519u  
  950.00000p    749.9994m     12.5812u  
  960.00000p    749.9996m     13.4106u  
  970.00000p    749.9998m     14.2399u  
  980.00000p    750.0000m     15.0692u  
  990.00000p    750.0002m     15.8985u  
    1.00000n    750.0004m     16.7279u  
    1.01000n    750.0005m     17.5572u  
    1.02000n    750.0007m     18.3865u  
    1.03000n    750.0009m     19.2158u  
    1.04000n    750.0011m     20.0451u  
    1.05000n    750.0013m     20.8745u  
    1.06000n    659.2195m   -239.7277u  
    1.07000n    568.4378m   -500.3299u  
    1.08000n    382.0745m    140.2523m  
    1.09000n      5.5955m    730.6472m  
    1.10000n      2.4695m    749.9086m  
    1.11000n      8.4363u    749.9901m  
    1.12000n     -4.5700u    750.0084m  
    1.13000n    962.2762n    750.0005m  
    1.14000n      6.4945u    749.9926m  
    1.15000n      9.9072u    749.9877m  
    1.16000n      8.2985u    749.9901m  
    1.17000n      6.6897u    749.9924m  
    1.18000n      5.0810u    749.9948m  
    1.19000n      3.4722u    749.9971m  
    1.20000n      1.8635u    749.9995m  
    1.21000n      0.         750.0018m  
    1.22000n     -1.3540u    750.0042m  
    1.23000n     -2.9628u    750.0065m  
    1.24000n     -3.1663u    750.0068m  
    1.25000n     -2.4852u    750.0058m  
    1.26000n     -1.8041u    750.0048m  
    1.27000n     -1.1231u    750.0038m  
    1.28000n      0.         750.0028m  
    1.29000n      0.         750.0018m  
    1.30000n    920.1899n    750.0008m  
    1.31000n      1.6013u    749.9998m  
    1.32000n      2.2824u    749.9988m  
    1.33000n      2.9634u    749.9978m  
    1.34000n      3.6445u    749.9968m  
    1.35000n      4.3256u    749.9958m  
    1.36000n      5.0067u    749.9948m  
    1.37000n      5.6878u    749.9938m  
    1.38000n      6.3689u    749.9928m  
    1.39000n      7.0499u    749.9918m  
    1.40000n      7.7310u    749.9908m  
    1.41000n      8.4121u    749.9898m  
    1.42000n      9.0932u    749.9888m  
    1.43000n      9.7743u    749.9878m  
    1.44000n      9.8382u    749.9878m  
    1.45000n      9.5013u    749.9883m  
    1.46000n      9.1644u    749.9887m  
    1.47000n      8.8276u    749.9892m  
    1.48000n      8.4907u    749.9897m  
    1.49000n      8.1538u    749.9902m  
    1.50000n      7.8170u    749.9907m  
    1.51000n      7.4801u    749.9912m  
    1.52000n      7.1432u    749.9917m  
    1.53000n      6.8064u    749.9922m  
    1.54000n      6.4695u    749.9927m  
    1.55000n      6.1326u    749.9932m  
    1.56000n      5.7958u    749.9937m  
    1.57000n      5.4589u    749.9942m  
    1.58000n      5.1220u    749.9947m  
    1.59000n      4.7852u    749.9952m  
    1.60000n      4.4483u    749.9957m  
    1.61000n      4.1114u    749.9962m  
    1.62000n      3.7746u    749.9967m  
    1.63000n      3.4377u    749.9972m  
    1.64000n      3.1009u    749.9976m  
    1.65000n      2.7640u    749.9981m  
    1.66000n      2.4271u    749.9986m  
    1.67000n      2.0903u    749.9991m  
    1.68000n      1.7534u    749.9996m  
    1.69000n      1.4165u    750.0001m  
    1.70000n      1.0797u    750.0006m  
    1.71000n    742.7941n    750.0011m  
    1.72000n      0.         750.0016m  
    1.73000n      0.         750.0021m  
    1.74000n      0.         750.0026m  
    1.75000n   -604.6665n    750.0031m  
    1.76000n   -941.5317n    750.0036m  
    1.77000n     -1.2784u    750.0041m  
    1.78000n     -1.6153u    750.0046m  
    1.79000n     -1.9521u    750.0051m  
    1.80000n     -2.2890u    750.0056m  
    1.81000n     -2.6259u    750.0061m  
    1.82000n     -2.9627u    750.0066m  
    1.83000n     -3.2996u    750.0070m  
    1.84000n     -2.9464u    750.0065m  
    1.85000n     -2.1453u    750.0053m  
    1.86000n     -1.3441u    750.0042m  
    1.87000n   -542.9395n    750.0030m  
    1.88000n      0.         750.0018m  
    1.89000n      1.0594u    750.0006m  
    1.90000n      1.8606u    749.9995m  
    1.91000n      2.6617u    749.9983m  
    1.92000n      3.4629u    749.9971m  
    1.93000n      4.2640u    749.9959m  
    1.94000n      5.0652u    749.9947m  
    1.95000n      5.8664u    749.9936m  
    1.96000n      6.6675u    749.9924m  
    1.97000n      7.4687u    749.9912m  
    1.98000n      8.2699u    749.9900m  
    1.99000n      9.0710u    749.9888m  
    2.00000n      9.8722u    749.9877m  
    2.01000n     -2.5098m    749.9969m  
    2.02000n     87.9334m    751.7088m  
    2.03000n    340.7485m    674.4766m  
    2.04000n    695.4359m     94.5810m  
    2.05000n    748.5606m      3.3829m  
    2.06000n    749.9863m      2.4392u  
    2.07000n    750.0459m     10.1532u  
    2.08000n    749.9892m      2.0768u  
    2.09000n    749.9813m      0.       
    2.10000n    749.9974m      5.9914u  
    2.11000n    749.9974m      3.2861u  
    2.12000n    749.9974m      3.2745u  
    2.13000n    749.9973m      3.1753u  
    2.14000n    749.9974m      3.2821u  
    2.15000n    749.9974m      3.3889u  
    2.16000n    749.9974m      3.3860u  
    2.17000n    749.9974m      3.3351u  
    2.18000n    749.9974m      3.2841u  
    2.19000n    749.9974m      3.2332u  
    2.20000n    749.9973m      3.1822u  
    2.21000n    749.9973m      3.1464u  
    2.22000n    749.9973m      3.1706u  
    2.23000n    749.9973m      3.1948u  
    2.24000n    749.9974m      3.2190u  
    2.25000n    749.9974m      3.2433u  
    2.26000n    749.9974m      3.2675u  
    2.27000n    749.9974m      3.2917u  
    2.28000n    749.9974m      3.3159u  
    2.29000n    749.9974m      3.3401u  
    2.30000n    749.9974m      3.3643u  
    2.31000n    749.9974m      3.3886u  
    2.32000n    749.9974m      3.4128u  
    2.33000n    749.9974m      3.4104u  
    2.34000n    749.9974m      3.3960u  
    2.35000n    749.9974m      3.3816u  
    2.36000n    749.9974m      3.3673u  
    2.37000n    749.9974m      3.3529u  
    2.38000n    749.9974m      3.3385u  
    2.39000n    749.9974m      3.3241u  
    2.40000n    749.9974m      3.3097u  
    2.41000n    749.9974m      3.2953u  
    2.42000n    749.9974m      3.2809u  
    2.43000n    749.9974m      3.2666u  
    2.44000n    749.9974m      3.2522u  
    2.45000n    749.9974m      3.2378u  
    2.46000n    749.9974m      3.2234u  
    2.47000n    749.9974m      3.2090u  
    2.48000n    749.9973m      3.1946u  
    2.49000n    749.9973m      3.1803u  
    2.50000n    749.9973m      3.1659u  
    2.51000n    749.9973m      3.1515u  
    2.52000n    749.9973m      3.1450u  
    2.53000n    749.9973m      3.1534u  
    2.54000n    749.9973m      3.1618u  
    2.55000n    749.9973m      3.1702u  
    2.56000n    749.9973m      3.1787u  
    2.57000n    749.9973m      3.1871u  
    2.58000n    749.9974m      3.1955u  
    2.59000n    749.9974m      3.2039u  
    2.60000n    749.9974m      3.2123u  
    2.61000n    749.9974m      3.2207u  
    2.62000n    749.9974m      3.2292u  
    2.63000n    749.9974m      3.2376u  
    2.64000n    749.9974m      3.2460u  
    2.65000n    749.9974m      3.2544u  
    2.66000n    749.9974m      3.2628u  
    2.67000n    749.9974m      3.2712u  
    2.68000n    749.9974m      3.2796u  
    2.69000n    749.9974m      3.2881u  
    2.70000n    749.9974m      3.2965u  
    2.71000n    749.9974m      3.3049u  
    2.72000n    749.9974m      3.3133u  
    2.73000n    749.9974m      3.3217u  
    2.74000n    749.9974m      3.3301u  
    2.75000n    749.9974m      3.3386u  
    2.76000n    749.9974m      3.3470u  
    2.77000n    749.9974m      3.3554u  
    2.78000n    749.9974m      3.3638u  
    2.79000n    749.9974m      3.3722u  
    2.80000n    749.9974m      3.3806u  
    2.81000n    749.9974m      3.3891u  
    2.82000n    749.9974m      3.3975u  
    2.83000n    749.9974m      3.4059u  
    2.84000n    749.9974m      3.4143u  
    2.85000n    749.9974m      3.4155u  
    2.86000n    749.9974m      3.4019u  
    2.87000n    749.9974m      3.3882u  
    2.88000n    749.9974m      3.3746u  
    2.89000n    749.9974m      3.3609u  
    2.90000n    749.9974m      3.3473u  
    2.91000n    749.9974m      3.3336u  
    2.92000n    749.9974m      3.3199u  
    2.93000n    749.9974m      3.3063u  
    2.94000n    749.9974m      3.2926u  
    2.95000n    749.9974m      3.2790u  
    2.96000n    749.9974m      3.2653u  
    2.97000n    749.9974m      3.2517u  
    2.98000n    749.9974m      3.2380u  
    2.99000n    749.9974m      3.2243u  
    3.00000n    749.9974m      3.2107u  
    3.01000n    749.9974m      3.1970u  
    3.02000n    749.9973m      3.1834u  
    3.03000n    749.9973m      3.1697u  
    3.04000n    749.9973m      3.1561u  
    3.05000n    749.9973m      3.1424u  
    3.06000n    659.2175m   -250.4815u  
    3.07000n    568.4377m   -504.1054u  
    3.08000n    385.9384m     62.4647m  
    3.09000n      6.1925m    728.1604m  
    3.10000n      2.4469m    749.8660m  
    3.11000n     10.6528u    749.9892m  
    3.12000n     -4.9100u    750.0063m  
    3.13000n      1.4788u    749.9993m  
    3.14000n      7.8675u    749.9922m  
    3.15000n     10.2543u    749.9896m  
    3.16000n      8.3910u    749.9917m  
    3.17000n      6.5278u    749.9938m  
    3.18000n      4.6646u    749.9958m  
    3.19000n      2.8013u    749.9979m  
    3.20000n    938.0870n    750.0000m  
    3.21000n   -925.1517n    750.0021m  
    3.22000n     -2.7884u    750.0041m  
    3.23000n     -4.2044u    750.0057m  
    3.24000n     -3.3778u    750.0048m  
    3.25000n     -2.5513u    750.0039m  
    3.26000n     -1.7248u    750.0030m  
    3.27000n   -898.2660n    750.0020m  
    3.28000n      0.         750.0011m  
    3.29000n    754.7850n    750.0002m  
    3.30000n      1.5813u    749.9993m  
    3.31000n      2.4078u    749.9983m  
    3.32000n      3.2344u    749.9974m  
    3.33000n      4.0609u    749.9965m  
    3.34000n      4.8874u    749.9956m  
    3.35000n      5.7139u    749.9947m  
    3.36000n      6.5405u    749.9937m  
    3.37000n      7.3670u    749.9928m  
    3.38000n      8.1935u    749.9919m  
    3.39000n      9.0200u    749.9910m  
    3.40000n      9.8466u    749.9900m  
    3.41000n     10.6731u    749.9891m  
    3.42000n     10.4671u    749.9894m  
    3.43000n     10.0929u    749.9898m  
    3.44000n      9.7188u    749.9902m  
    3.45000n      9.3446u    749.9906m  
    3.46000n      8.9705u    749.9910m  
    3.47000n      8.5963u    749.9914m  
    3.48000n      8.2222u    749.9919m  
    3.49000n      7.8480u    749.9923m  
    3.50000n      7.4739u    749.9927m  
    3.51000n      7.0997u    749.9931m  
    3.52000n      6.7255u    749.9935m  
    3.53000n      6.3514u    749.9939m  
    3.54000n      5.9772u    749.9944m  
    3.55000n      5.6031u    749.9948m  
    3.56000n      5.2289u    749.9952m  
    3.57000n      4.8548u    749.9956m  
    3.58000n      4.4806u    749.9960m  
    3.59000n      4.1065u    749.9965m  
    3.60000n      3.7323u    749.9969m  
    3.61000n      3.3582u    749.9973m  
    3.62000n      2.9840u    749.9977m  
    3.63000n      2.6099u    749.9981m  
    3.64000n      2.2357u    749.9985m  
    3.65000n      1.8616u    749.9990m  
    3.66000n      1.4874u    749.9994m  
    3.67000n      1.1133u    749.9998m  
    3.68000n    739.1279n    750.0002m  
    3.69000n      0.         750.0006m  
    3.70000n      0.         750.0010m  
    3.71000n      0.         750.0015m  
    3.72000n   -757.4772n    750.0019m  
    3.73000n     -1.1316u    750.0023m  
    3.74000n     -1.5058u    750.0027m  
    3.75000n     -1.8799u    750.0031m  
    3.76000n     -2.2541u    750.0036m  
    3.77000n     -2.6282u    750.0040m  
    3.78000n     -3.0024u    750.0044m  
    3.79000n     -3.3765u    750.0048m  
    3.80000n     -3.7507u    750.0052m  
    3.81000n     -4.1248u    750.0056m  
    3.82000n     -3.5021u    750.0049m  
    3.83000n     -2.7169u    750.0041m  
    3.84000n     -1.9318u    750.0032m  
    3.85000n     -1.1467u    750.0023m  
    3.86000n      0.         750.0014m  
    3.87000n      0.         750.0006m  
    3.88000n      1.2086u    749.9997m  
    3.89000n      1.9937u    749.9988m  
    3.90000n      2.7788u    749.9979m  
    3.91000n      3.5639u    749.9971m  
    3.92000n      4.3490u    749.9962m  
    3.93000n      5.1341u    749.9953m  
    3.94000n      5.9192u    749.9944m  
    3.95000n      6.7044u    749.9936m  
    3.96000n      7.4895u    749.9927m  
    3.97000n      8.2746u    749.9918m  
    3.98000n      9.0597u    749.9909m  
    3.99000n      9.8448u    749.9900m  
    4.00000n     10.6299u    749.9892m  
    4.01000n     -2.4911m    749.9947m  
    4.02000n     96.2414m    743.0520m  
    4.03000n    357.5051m    707.1646m  
    4.04000n    701.6225m     69.9397m  
    4.05000n    758.2190m    233.3772m  
    4.06000n      1.4086    -878.4013m  
    4.07000n      1.0865      -1.5642   
    4.08000n      1.4042      -1.4885   
    4.09000n      2.6982      -1.8158   
    4.10000n      2.2923      -2.1585   
    4.11000n      1.0699      -2.0699   
    4.12000n   -680.7137m     -1.7237   
    4.13000n     -2.6080      -1.2553   
    4.14000n     -3.3861    -987.6814m  
    4.15000n     -3.0345    -636.0246m  
    4.16000n     -2.4501    -116.3854m  
    4.17000n     -1.7084     459.4163m  
    4.18000n   -901.3773m    982.5121m  
    4.19000n      1.4118       1.9464   
    4.20000n      4.2468       2.1349   
    4.21000n      3.6204       2.1636   
    4.22000n      1.4469     710.8879m  
    4.23000n    848.2128m   -852.9822m  
    4.24000n      1.5063      -1.3620   
    4.25000n      2.3059      -1.4887   
    4.26000n      2.4578      -1.4950   
    4.27000n      2.3165      -1.5083   
    4.28000n      2.2477      -1.1579   
    4.29000n      2.3398    -291.4028m  
    4.30000n      2.0122    -141.7981m  
    4.31000n      1.4626    -271.9109m  
    4.32000n      1.1889    -822.1442m  
    4.33000n      1.0932      -1.2493   
    4.34000n      1.0383      -1.1696   
    4.35000n      1.5317    -702.8321m  
    4.36000n      2.1411     -33.1409m  
    4.37000n      2.4767     218.4723m  
    4.38000n      3.0108       1.1648   
    4.39000n      3.3274       1.9933   
    4.40000n      3.1089       2.0293   
    4.41000n      2.6217       2.0029   
    4.42000n      1.8498       1.9231   
    4.43000n    441.4255m      1.7540   
    4.44000n     -1.2697       1.5045   
    4.45000n     -2.7500       1.4496   
    4.46000n     -1.7948       2.0426   
    4.47000n   -804.7621m      2.3629   
    4.48000n    209.9091m      2.6245   
    4.49000n    622.7161m      2.3763   
    4.50000n    638.6921m    997.6777m  
    4.51000n    790.3492m    751.0282m  
    4.52000n    769.5922m    499.9218m  
    4.53000n    807.6676m    285.2550m  
    4.54000n    752.1352m     83.8746m  
    4.55000n    751.1109m     21.4803m  
    4.56000n    715.0368m   -496.0479m  
    4.57000n      1.4157      -1.3026   
    4.58000n      2.3932      -1.2638   
    4.59000n      2.6845      -1.1931   
    4.60000n      2.7441      -1.0682   
    4.61000n      2.7016    -884.5378m  
    4.62000n      2.5313    -647.7192m  
    4.63000n      2.3246     -41.3894m  
    4.64000n      1.1137     -23.6587m  
    4.65000n    749.7661m   -182.7637u  
    4.66000n    749.9902m     -5.0964u  
    4.67000n    749.9972m      2.7585u  
    4.68000n    749.9974m      3.2443u  
    4.69000n    749.9974m      3.2783u  
    4.70000n    749.9974m      3.2808u  
    4.71000n    749.9974m      3.2810u  
    4.72000n    749.9974m      3.2810u  
    4.73000n    749.9974m      3.2810u  
    4.74000n    749.9974m      3.2810u  
    4.75000n    749.9974m      3.2810u  
    4.76000n    749.9974m      3.2810u  
    4.77000n    749.9974m      3.2810u  
    4.78000n    749.9974m      3.2810u  
    4.79000n    749.9974m      3.2810u  
    4.80000n    749.9974m      3.2810u  
    4.81000n    749.9974m      3.2810u  
    4.82000n    749.9974m      3.2810u  
    4.83000n    749.9974m      3.2810u  
    4.84000n    749.9974m      3.2810u  
    4.85000n    749.9974m      3.2810u  
    4.86000n    749.9974m      3.2810u  
    4.87000n    749.9974m      3.2810u  
    4.88000n    749.9974m      3.2810u  
    4.89000n    749.9974m      3.2810u  
    4.90000n    749.9974m      3.2810u  
    4.91000n    749.9974m      3.2810u  
    4.92000n    749.9974m      3.2810u  
    4.93000n    749.9974m      3.2810u  
    4.94000n    749.9974m      3.2810u  
    4.95000n    749.9974m      3.2810u  
    4.96000n    749.9974m      3.2810u  
    4.97000n    749.9974m      3.2810u  
    4.98000n    749.9974m      3.2810u  
    4.99000n    749.9974m      3.2810u  
    5.00000n    749.9974m      3.2810u  
    5.01000n    749.9974m      3.2810u  
    5.02000n    749.9974m      3.2810u  
    5.03000n    749.9974m      3.2810u  
    5.04000n    749.9974m      3.2810u  
    5.05000n    749.9974m      3.2810u  
    5.06000n    753.1318m     -9.7928u  
    5.07000n    640.8343m     -2.3371m  
    5.08000n    434.2165m     99.5516m  
    5.09000n     28.2871m    675.9326m  
    5.10000n      2.1551m    750.0672m  
    5.11000n      5.8541u    749.9883m  
    5.12000n      2.6094u    750.0064m  
    5.13000n      3.1175u    749.9782m  
    5.14000n      3.3291u    749.9836m  
    5.15000n      3.4790u    749.9960m  
    5.16000n      3.6288u    750.0084m  
    5.17000n      3.7786u    750.0208m  
    5.18000n      3.6419u    750.0155m  
    5.19000n      3.4996u    750.0099m  
    5.20000n      3.3572u    750.0042m  
    5.21000n      3.2148u    749.9986m  
    5.22000n      3.0725u    749.9929m  
    5.23000n      2.9301u    749.9873m  
    5.24000n      2.7878u    749.9816m  
    5.25000n      2.6454u    749.9760m  
    5.26000n      2.6467u    749.9756m  
    5.27000n      2.7319u    749.9783m  
    5.28000n      2.8172u    749.9811m  
    5.29000n      2.9025u    749.9838m  
    5.30000n      2.9877u    749.9865m  
    5.31000n      3.0730u    749.9893m  
    5.32000n      3.1583u    749.9920m  
    5.33000n      3.2435u    749.9947m  
    5.34000n      3.3288u    749.9975m  
    5.35000n      3.4140u    750.0002m  
    5.36000n      3.4993u    750.0029m  
    5.37000n      3.5846u    750.0057m  
    5.38000n      3.6698u    750.0084m  
    5.39000n      3.7551u    750.0111m  
    5.40000n      3.8403u    750.0139m  
    5.41000n      3.9256u    750.0166m  
    5.42000n      4.0109u    750.0193m  
    5.43000n      4.0323u    750.0201m  
    5.44000n      3.9796u    750.0185m  
    5.45000n      3.9269u    750.0170m  
    5.46000n      3.8742u    750.0155m  
    5.47000n      3.8215u    750.0139m  
    5.48000n      3.7688u    750.0124m  
    5.49000n      3.7161u    750.0108m  
    5.50000n      3.6634u    750.0093m  
    5.51000n      3.6107u    750.0078m  
    5.52000n      3.5580u    750.0062m  
    5.53000n      3.5053u    750.0047m  
    5.54000n      3.4526u    750.0031m  
    5.55000n      3.3999u    750.0016m  
    5.56000n      3.3472u    750.0001m  
    5.57000n      3.2946u    749.9985m  
    5.58000n      3.2419u    749.9970m  
    5.59000n      3.1892u    749.9955m  
    5.60000n      3.1365u    749.9939m  
    5.61000n      3.0838u    749.9924m  
    5.62000n      3.0311u    749.9908m  
    5.63000n      2.9784u    749.9893m  
    5.64000n      2.9257u    749.9878m  
    5.65000n      2.8730u    749.9862m  
    5.66000n      2.8203u    749.9847m  
    5.67000n      2.7676u    749.9831m  
    5.68000n      2.7149u    749.9816m  
    5.69000n      2.6622u    749.9801m  
    5.70000n      2.6095u    749.9785m  
    5.71000n      2.5568u    749.9770m  
    5.72000n      2.5041u    749.9754m  
    5.73000n      2.4587u    749.9741m  
    5.74000n      2.5218u    749.9758m  
    5.75000n      2.5849u    749.9776m  
    5.76000n      2.6479u    749.9793m  
    5.77000n      2.7110u    749.9810m  
    5.78000n      2.7741u    749.9827m  
    5.79000n      2.8371u    749.9845m  
    5.80000n      2.9002u    749.9862m  
    5.81000n      2.9633u    749.9879m  
    5.82000n      3.0263u    749.9896m  
    5.83000n      3.0894u    749.9914m  
    5.84000n      3.1525u    749.9931m  
    5.85000n      3.2155u    749.9948m  
    5.86000n      3.2786u    749.9965m  
    5.87000n      3.3417u    749.9983m  
    5.88000n      3.4047u    750.0000m  
    5.89000n      3.4678u    750.0017m  
    5.90000n      3.5309u    750.0034m  
    5.91000n      3.5939u    750.0052m  
    5.92000n      3.6570u    750.0069m  
    5.93000n      3.7201u    750.0086m  
    5.94000n      3.7831u    750.0103m  
    5.95000n      3.8462u    750.0121m  
    5.96000n      3.9093u    750.0138m  
    5.97000n      3.9723u    750.0155m  
    5.98000n      4.0354u    750.0172m  
    5.99000n      4.0985u    750.0190m  
    6.00000n      4.1615u    750.0207m  
    6.01000n     -2.4253m    749.9892m  
    6.02000n     17.3430m    750.9050m  
    6.03000n    277.3433m    750.6729m  
    6.04000n    706.9237m     76.7938m  
    6.05000n    747.3541m    817.5286u  
    6.06000n    749.9985m     13.6538u  
    6.07000n    749.9900m    -29.3599u  
    6.08000n    750.0020m     18.6334u  
    6.09000n    749.9926m    -12.5872u  
    6.10000n    750.0048m     20.4725u  
    6.11000n    749.9972m      2.9871u  
    6.12000n    749.9974m      3.4314u  
    6.13000n    749.9972m      2.9198u  
    6.14000n    749.9973m      3.0855u  
    6.15000n    749.9974m      3.3436u  
    6.16000n    749.9975m      3.6018u  
    6.17000n    749.9975m      3.6238u  
    6.18000n    749.9975m      3.5014u  
    6.19000n    749.9974m      3.3790u  
    6.20000n    749.9974m      3.2565u  
    6.21000n    749.9973m      3.1341u  
    6.22000n    749.9973m      3.0117u  
    6.23000n    749.9972m      2.8892u  
    6.24000n    749.9972m      2.9090u  
    6.25000n    749.9972m      2.9655u  
    6.26000n    749.9973m      3.0220u  
    6.27000n    749.9973m      3.0785u  
    6.28000n    749.9973m      3.1349u  
    6.29000n    749.9973m      3.1914u  
    6.30000n    749.9974m      3.2479u  
    6.31000n    749.9974m      3.3044u  
    6.32000n    749.9974m      3.3608u  
    6.33000n    749.9974m      3.4173u  
    6.34000n    749.9975m      3.4738u  
    6.35000n    749.9975m      3.5302u  
    6.36000n    749.9975m      3.5867u  
    6.37000n    749.9975m      3.6432u  
    6.38000n    749.9976m      3.6955u  
    6.39000n    749.9975m      3.6622u  
    6.40000n    749.9975m      3.6289u  
    6.41000n    749.9975m      3.5956u  
    6.42000n    749.9975m      3.5623u  
    6.43000n    749.9975m      3.5290u  
    6.44000n    749.9975m      3.4957u  
    6.45000n    749.9975m      3.4623u  
    6.46000n    749.9974m      3.4290u  
    6.47000n    749.9974m      3.3957u  
    6.48000n    749.9974m      3.3624u  
    6.49000n    749.9974m      3.3291u  
    6.50000n    749.9974m      3.2958u  
    6.51000n    749.9974m      3.2625u  
    6.52000n    749.9974m      3.2292u  
    6.53000n    749.9973m      3.1959u  
    6.54000n    749.9973m      3.1625u  
    6.55000n    749.9973m      3.1292u  
    6.56000n    749.9973m      3.0959u  
    6.57000n    749.9973m      3.0626u  
    6.58000n    749.9973m      3.0293u  
    6.59000n    749.9973m      2.9960u  
    6.60000n    749.9972m      2.9627u  
    6.61000n    749.9972m      2.9294u  
    6.62000n    749.9972m      2.8961u  
    6.63000n    749.9972m      2.8671u  
    6.64000n    749.9972m      2.8869u  
    6.65000n    749.9972m      2.9066u  
    6.66000n    749.9972m      2.9264u  
    6.67000n    749.9972m      2.9461u  
    6.68000n    749.9972m      2.9658u  
    6.69000n    749.9972m      2.9856u  
    6.70000n    749.9973m      3.0053u  
    6.71000n    749.9973m      3.0251u  
    6.72000n    749.9973m      3.0448u  
    6.73000n    749.9973m      3.0646u  
    6.74000n    749.9973m      3.0843u  
    6.75000n    749.9973m      3.1040u  
    6.76000n    749.9973m      3.1238u  
    6.77000n    749.9973m      3.1435u  
    6.78000n    749.9973m      3.1633u  
    6.79000n    749.9973m      3.1830u  
    6.80000n    749.9973m      3.2027u  
    6.81000n    749.9974m      3.2225u  
    6.82000n    749.9974m      3.2422u  
    6.83000n    749.9974m      3.2620u  
    6.84000n    749.9974m      3.2817u  
    6.85000n    749.9974m      3.3014u  
    6.86000n    749.9974m      3.3212u  
    6.87000n    749.9974m      3.3409u  
    6.88000n    749.9974m      3.3607u  
    6.89000n    749.9974m      3.3804u  
    6.90000n    749.9974m      3.4001u  
    6.91000n    749.9974m      3.4199u  
    6.92000n    749.9974m      3.4396u  
    6.93000n    749.9975m      3.4594u  
    6.94000n    749.9975m      3.4791u  
    6.95000n    749.9975m      3.4988u  
    6.96000n    749.9975m      3.5186u  
    6.97000n    749.9975m      3.5383u  
    6.98000n    749.9975m      3.5581u  
    6.99000n    749.9975m      3.5778u  
    7.00000n    749.9975m      3.5975u  
    7.01000n    749.9975m      3.6173u  
    7.02000n    749.9975m      3.6370u  
    7.03000n    749.9975m      3.6568u  
    7.04000n    749.9976m      3.6765u  
    7.05000n    749.9976m      3.6962u  
    7.06000n    659.2176m   -250.1484u  
    7.07000n    568.4377m   -503.9931u  
    7.08000n    382.1229m    139.1486m  
    7.09000n      5.5983m    730.5020m  
    7.10000n      2.4844m    749.9486m  
    7.11000n     12.2953u    749.9964m  
    7.12000n     -2.0812u    749.9976m  
    7.13000n      8.0420u    749.9970m  
    7.14000n     11.0493u    749.9968m  
    7.15000n      8.0915u    749.9970m  
    7.16000n      5.1338u    749.9972m  
    7.17000n      2.1761u    749.9974m  
    7.18000n   -781.6056n    749.9976m  
    7.19000n     -3.7393u    749.9979m  
    7.20000n     -5.4501u    749.9980m  
    7.21000n     -4.3429u    749.9979m  
    7.22000n     -3.2358u    749.9978m  
    7.23000n     -2.1286u    749.9978m  
    7.24000n     -1.0214u    749.9977m  
    7.25000n      0.         749.9976m  
    7.26000n      1.1930u    749.9975m  
    7.27000n      2.3001u    749.9974m  
    7.28000n      3.4073u    749.9974m  
    7.29000n      4.5145u    749.9973m  
    7.30000n      5.6217u    749.9972m  
    7.31000n      6.7288u    749.9971m  
    7.32000n      7.8360u    749.9971m  
    7.33000n      8.9432u    749.9970m  
    7.34000n     10.0504u    749.9969m  
    7.35000n     11.1576u    749.9968m  
    7.36000n     12.2287u    749.9968m  
    7.37000n     11.7803u    749.9968m  
    7.38000n     11.3319u    749.9968m  
    7.39000n     10.8835u    749.9969m  
    7.40000n     10.4351u    749.9969m  
    7.41000n      9.9867u    749.9969m  
    7.42000n      9.5383u    749.9970m  
    7.43000n      9.0899u    749.9970m  
    7.44000n      8.6415u    749.9970m  
    7.45000n      8.1931u    749.9970m  
    7.46000n      7.7447u    749.9971m  
    7.47000n      7.2963u    749.9971m  
    7.48000n      6.8480u    749.9971m  
    7.49000n      6.3996u    749.9972m  
    7.50000n      5.9512u    749.9972m  
    7.51000n      5.5028u    749.9972m  
    7.52000n      5.0544u    749.9973m  
    7.53000n      4.6060u    749.9973m  
    7.54000n      4.1576u    749.9973m  
    7.55000n      3.7092u    749.9973m  
    7.56000n      3.2608u    749.9974m  
    7.57000n      2.8124u    749.9974m  
    7.58000n      2.3640u    749.9974m  
    7.59000n      1.9156u    749.9975m  
    7.60000n      1.4672u    749.9975m  
    7.61000n      1.0188u    749.9975m  
    7.62000n    570.4196n    749.9976m  
    7.63000n      0.         749.9976m  
    7.64000n      0.         749.9976m  
    7.65000n   -774.7661n    749.9976m  
    7.66000n     -1.2232u    749.9977m  
    7.67000n     -1.6716u    749.9977m  
    7.68000n     -2.1200u    749.9977m  
    7.69000n     -2.5683u    749.9978m  
    7.70000n     -3.0167u    749.9978m  
    7.71000n     -3.4651u    749.9978m  
    7.72000n     -3.9135u    749.9979m  
    7.73000n     -4.3619u    749.9979m  
    7.74000n     -4.8103u    749.9979m  
    7.75000n     -5.2587u    749.9980m  
    7.76000n     -5.5045u    749.9980m  
    7.77000n     -4.7702u    749.9979m  
    7.78000n     -4.0360u    749.9979m  
    7.79000n     -3.3017u    749.9978m  
    7.80000n     -2.5675u    749.9978m  
    7.81000n     -1.8332u    749.9977m  
    7.82000n     -1.0990u    749.9977m  
    7.83000n      0.         749.9976m  
    7.84000n      0.         749.9976m  
    7.85000n      1.1038u    749.9975m  
    7.86000n      1.8380u    749.9975m  
    7.87000n      2.5723u    749.9974m  
    7.88000n      3.3065u    749.9974m  
    7.89000n      4.0408u    749.9973m  
    7.90000n      4.7750u    749.9973m  
    7.91000n      5.5093u    749.9972m  
    7.92000n      6.2435u    749.9972m  
    7.93000n      6.9778u    749.9971m  
    7.94000n      7.7120u    749.9971m  
    7.95000n      8.4463u    749.9970m  
    7.96000n      9.1805u    749.9970m  
    7.97000n      9.9147u    749.9969m  
    7.98000n     10.6490u    749.9969m  
    7.99000n     11.3832u    749.9968m  
    8.00000n     12.1175u    749.9968m  
y
x

        time    voltage      voltage    
                 outin_10     outin_20  
    0.          749.9974m      3.2810u  
   10.00000p    750.0254m      5.2371u  
   20.00000p    750.8417m     23.4896u  
   30.00000p    754.9021m    -84.9682u  
   40.00000p     50.1271m    460.9992m  
   50.00000p    383.0188u    750.8427m  
   60.00000p     24.5121u    750.0134m  
   70.00000p    -15.1556u    749.9809m  
   80.00000p     -2.7987u    749.9922m  
   90.00000p      9.5581u    750.0035m  
  100.00000p     21.2762u    750.0143m  
  110.00000p     15.7054u    750.0090m  
  120.00000p     10.1347u    750.0037m  
  130.00000p      4.5639u    749.9984m  
  140.00000p     -1.0068u    749.9931m  
  150.00000p     -6.5775u    749.9879m  
  160.00000p    -12.1483u    749.9826m  
  170.00000p    -13.2733u    749.9815m  
  180.00000p    -10.9735u    749.9837m  
  190.00000p     -8.6737u    749.9860m  
  200.00000p     -6.3738u    749.9882m  
  210.00000p     -4.0740u    749.9904m  
  220.00000p     -1.7742u    749.9926m  
  230.00000p    525.6361n    749.9948m  
  240.00000p      2.8255u    749.9970m  
  250.00000p      5.1253u    749.9992m  
  260.00000p      7.4251u    750.0014m  
  270.00000p      9.7249u    750.0037m  
  280.00000p     12.0248u    750.0059m  
  290.00000p     14.3246u    750.0081m  
  300.00000p     16.6244u    750.0103m  
  310.00000p     18.9242u    750.0125m  
  320.00000p     20.8797u    750.0144m  
  330.00000p     19.7245u    750.0133m  
  340.00000p     18.5693u    750.0122m  
  350.00000p     17.4141u    750.0110m  
  360.00000p     16.2589u    750.0099m  
  370.00000p     15.1037u    750.0088m  
  380.00000p     13.9485u    750.0077m  
  390.00000p     12.7933u    750.0066m  
  400.00000p     11.6381u    750.0054m  
  410.00000p     10.4829u    750.0043m  
  420.00000p      9.3277u    750.0032m  
  430.00000p      8.1725u    750.0021m  
  440.00000p      7.0173u    750.0010m  
  450.00000p      5.8621u    749.9998m  
  460.00000p      4.7069u    749.9987m  
  470.00000p      3.5517u    749.9976m  
  480.00000p      2.3965u    749.9965m  
  490.00000p      1.2413u    749.9954m  
  500.00000p      0.         749.9943m  
  510.00000p     -1.0691u    749.9931m  
  520.00000p     -2.2243u    749.9920m  
  530.00000p     -3.3795u    749.9909m  
  540.00000p     -4.5347u    749.9898m  
  550.00000p     -5.6899u    749.9887m  
  560.00000p     -6.8451u    749.9875m  
  570.00000p     -8.0003u    749.9864m  
  580.00000p     -9.1555u    749.9853m  
  590.00000p    -10.3107u    749.9842m  
  600.00000p    -11.4659u    749.9831m  
  610.00000p    -12.6211u    749.9819m  
  620.00000p    -13.7763u    749.9808m  
  630.00000p    -13.9571u    749.9806m  
  640.00000p    -13.1278u    749.9815m  
  650.00000p    -12.2984u    749.9823m  
  660.00000p    -11.4691u    749.9831m  
  670.00000p    -10.6398u    749.9839m  
  680.00000p     -9.8105u    749.9847m  
  690.00000p     -8.9811u    749.9855m  
  700.00000p     -8.1518u    749.9863m  
  710.00000p     -7.3225u    749.9871m  
  720.00000p     -6.4932u    749.9879m  
  730.00000p     -5.6639u    749.9887m  
  740.00000p     -4.8345u    749.9895m  
  750.00000p     -4.0052u    749.9903m  
  760.00000p     -3.1759u    749.9911m  
  770.00000p     -2.3466u    749.9919m  
  780.00000p     -1.5172u    749.9927m  
  790.00000p   -687.9175n    749.9936m  
  800.00000p      0.         749.9944m  
  810.00000p    970.7276n    749.9952m  
  820.00000p      1.8001u    749.9960m  
  830.00000p      2.6294u    749.9968m  
  840.00000p      3.4587u    749.9976m  
  850.00000p      4.2880u    749.9984m  
  860.00000p      5.1173u    749.9992m  
  870.00000p      5.9467u    750.0000m  
  880.00000p      6.7760u    750.0008m  
  890.00000p      7.6053u    750.0016m  
  900.00000p      8.4346u    750.0024m  
  910.00000p      9.2640u    750.0032m  
  920.00000p     10.0933u    750.0040m  
  930.00000p     10.9226u    750.0048m  
  940.00000p     11.7519u    750.0057m  
  950.00000p     12.5812u    750.0065m  
  960.00000p     13.4106u    750.0073m  
  970.00000p     14.2399u    750.0081m  
  980.00000p     15.0692u    750.0089m  
  990.00000p     15.8985u    750.0097m  
    1.00000n     16.7279u    750.0105m  
    1.01000n     17.5572u    750.0113m  
    1.02000n     18.3865u    750.0121m  
    1.03000n     19.2158u    750.0129m  
    1.04000n     20.0451u    750.0137m  
    1.05000n     20.8745u    750.0145m  
    1.06000n   -239.7277u    750.0057m  
    1.07000n   -500.3299u    749.9969m  
    1.08000n    140.2523m    757.0337m  
    1.09000n    730.6472m    100.5802m  
    1.10000n    749.9086m   -172.4540u  
    1.11000n    749.9901m   -670.3143n  
    1.12000n    750.0084m      9.5357u  
    1.13000n    750.0005m      5.0142u  
    1.14000n    749.9926m      0.       
    1.15000n    749.9877m     -2.2825u  
    1.16000n    749.9901m   -920.2559n  
    1.17000n    749.9924m      0.       
    1.18000n    749.9948m      1.8042u  
    1.19000n    749.9971m      3.1664u  
    1.20000n    749.9995m      4.5286u  
    1.21000n    750.0018m      5.8909u  
    1.22000n    750.0042m      7.2531u  
    1.23000n    750.0065m      8.6153u  
    1.24000n    750.0068m      8.7833u  
    1.25000n    750.0058m      8.1995u  
    1.26000n    750.0048m      7.6157u  
    1.27000n    750.0038m      7.0319u  
    1.28000n    750.0028m      6.4480u  
    1.29000n    750.0018m      5.8642u  
    1.30000n    750.0008m      5.2804u  
    1.31000n    749.9998m      4.6966u  
    1.32000n    749.9988m      4.1127u  
    1.33000n    749.9978m      3.5289u  
    1.34000n    749.9968m      2.9451u  
    1.35000n    749.9958m      2.3613u  
    1.36000n    749.9948m      1.7775u  
    1.37000n    749.9938m      1.1936u  
    1.38000n    749.9928m    609.8064n  
    1.39000n    749.9918m      0.       
    1.40000n    749.9908m   -557.8387n  
    1.41000n    749.9898m     -1.1417u  
    1.42000n    749.9888m     -1.7255u  
    1.43000n    749.9878m     -2.3093u  
    1.44000n    749.9878m     -2.3631u  
    1.45000n    749.9883m     -2.0727u  
    1.46000n    749.9887m     -1.7824u  
    1.47000n    749.9892m     -1.4920u  
    1.48000n    749.9897m     -1.2017u  
    1.49000n    749.9902m   -911.3266n  
    1.50000n    749.9907m   -620.9741n  
    1.51000n    749.9912m      0.       
    1.52000n    749.9917m      0.       
    1.53000n    749.9922m      0.       
    1.54000n    749.9927m    540.4359n  
    1.55000n    749.9932m    830.7884n  
    1.56000n    749.9937m      1.1211u  
    1.57000n    749.9942m      1.4115u  
    1.58000n    749.9947m      1.7018u  
    1.59000n    749.9952m      1.9922u  
    1.60000n    749.9957m      2.2826u  
    1.61000n    749.9962m      2.5729u  
    1.62000n    749.9967m      2.8633u  
    1.63000n    749.9972m      3.1536u  
    1.64000n    749.9976m      3.4440u  
    1.65000n    749.9981m      3.7343u  
    1.66000n    749.9986m      4.0247u  
    1.67000n    749.9991m      4.3150u  
    1.68000n    749.9996m      4.6054u  
    1.69000n    750.0001m      4.8957u  
    1.70000n    750.0006m      5.1861u  
    1.71000n    750.0011m      5.4764u  
    1.72000n    750.0016m      5.7668u  
    1.73000n    750.0021m      6.0571u  
    1.74000n    750.0026m      6.3475u  
    1.75000n    750.0031m      6.6378u  
    1.76000n    750.0036m      6.9282u  
    1.77000n    750.0041m      7.2185u  
    1.78000n    750.0046m      7.5089u  
    1.79000n    750.0051m      7.7992u  
    1.80000n    750.0056m      8.0896u  
    1.81000n    750.0061m      8.3800u  
    1.82000n    750.0066m      8.6703u  
    1.83000n    750.0070m      8.9607u  
    1.84000n    750.0065m      8.6537u  
    1.85000n    750.0053m      7.9588u  
    1.86000n    750.0042m      7.2640u  
    1.87000n    750.0030m      6.5691u  
    1.88000n    750.0018m      5.8743u  
    1.89000n    750.0006m      5.1795u  
    1.90000n    749.9995m      4.4846u  
    1.91000n    749.9983m      3.7898u  
    1.92000n    749.9971m      3.0950u  
    1.93000n    749.9959m      2.4001u  
    1.94000n    749.9947m      1.7053u  
    1.95000n    749.9936m      1.0104u  
    1.96000n    749.9924m      0.       
    1.97000n    749.9912m      0.       
    1.98000n    749.9900m     -1.0741u  
    1.99000n    749.9888m     -1.7689u  
    2.00000n    749.9877m     -2.4637u  
    2.01000n    749.9969m      7.2438u  
    2.02000n    751.7088m     41.0462u  
    2.03000n    674.4766m     14.3930m  
    2.04000n     94.5810m    442.3962m  
    2.05000n      3.3829m    753.2895m  
    2.06000n      2.4392u    750.0046m  
    2.07000n     10.1532u    749.9560m  
    2.08000n      2.0768u    750.0036m  
    2.09000n      0.         750.0173m  
    2.10000n      5.9914u    750.0083m  
    2.11000n      3.2861u    749.9974m  
    2.12000n      3.2745u    749.9974m  
    2.13000n      3.1753u    749.9971m  
    2.14000n      3.2821u    749.9974m  
    2.15000n      3.3889u    749.9977m  
    2.16000n      3.3860u    749.9976m  
    2.17000n      3.3351u    749.9975m  
    2.18000n      3.2841u    749.9974m  
    2.19000n      3.2332u    749.9973m  
    2.20000n      3.1822u    749.9971m  
    2.21000n      3.1464u    749.9970m  
    2.22000n      3.1706u    749.9971m  
    2.23000n      3.1948u    749.9972m  
    2.24000n      3.2190u    749.9972m  
    2.25000n      3.2433u    749.9973m  
    2.26000n      3.2675u    749.9973m  
    2.27000n      3.2917u    749.9974m  
    2.28000n      3.3159u    749.9975m  
    2.29000n      3.3401u    749.9975m  
    2.30000n      3.3643u    749.9976m  
    2.31000n      3.3886u    749.9976m  
    2.32000n      3.4128u    749.9977m  
    2.33000n      3.4104u    749.9977m  
    2.34000n      3.3960u    749.9977m  
    2.35000n      3.3816u    749.9976m  
    2.36000n      3.3673u    749.9976m  
    2.37000n      3.3529u    749.9976m  
    2.38000n      3.3385u    749.9975m  
    2.39000n      3.3241u    749.9975m  
    2.40000n      3.3097u    749.9974m  
    2.41000n      3.2953u    749.9974m  
    2.42000n      3.2809u    749.9974m  
    2.43000n      3.2666u    749.9973m  
    2.44000n      3.2522u    749.9973m  
    2.45000n      3.2378u    749.9973m  
    2.46000n      3.2234u    749.9972m  
[...]
    3.68000n    749.9974m      3.2810u  
    3.69000n    749.9974m      3.2810u  
    3.70000n    749.9974m      3.2810u  
    3.71000n    749.9974m      3.2810u  
    3.72000n    749.9974m      3.2810u  
    3.73000n    749.9974m      3.2810u  
    3.74000n    749.9974m      3.2810u  
    3.75000n    749.9974m      3.2810u  
    3.76000n    749.9974m      3.2810u  
    3.77000n    749.9974m      3.2810u  
    3.78000n    749.9974m      3.2810u  
    3.79000n    749.9974m      3.2810u  
    3.80000n    749.9974m      3.2810u  
    3.81000n    749.9974m      3.2810u  
    3.82000n    749.9974m      3.2810u  
    3.83000n    749.9974m      3.2810u  
    3.84000n    749.9974m      3.2810u  
    3.85000n    749.9974m      3.2810u  
    3.86000n    749.9974m      3.2810u  
    3.87000n    749.9974m      3.2810u  
    3.88000n    749.9974m      3.2810u  
    3.89000n    749.9974m      3.2810u  
    3.90000n    749.9974m      3.2810u  
    3.91000n    749.9974m      3.2810u  
    3.92000n    749.9974m      3.2810u  
    3.93000n    749.9974m      3.2810u  
    3.94000n    749.9974m      3.2810u  
    3.95000n    749.9974m      3.2810u  
    3.96000n    749.9974m      3.2810u  
    3.97000n    749.9974m      3.2810u  
    3.98000n    749.9974m      3.2810u  
    3.99000n    749.9974m      3.2810u  
    4.00000n    749.9974m      3.2810u  
    4.01000n    749.9974m      3.2810u  
    4.02000n    749.9974m      3.2810u  
    4.03000n    749.9974m      3.2810u  
    4.04000n    749.9974m      3.2810u  
    4.05000n    749.9974m      3.2810u  
    4.06000n    749.9968m      3.3628u  
    4.07000n    750.0166m      3.6043u  
    4.08000n    754.2193m    258.4559u  
    4.09000n    123.7368m    666.9831m  
    4.10000n     -2.9201     675.3583m  
    4.11000n     -1.7019     772.7780m  
    4.12000n   -216.7872m    407.9285m  
    4.13000n      2.0035      43.9723m  
    4.14000n      3.2788      21.7937m  
    4.15000n      3.0857      -3.3298m  
    4.16000n      2.7557      -5.8150m  
    4.17000n      2.2965      -7.7453m  
    4.18000n      1.6681     -10.5974m  
    4.19000n    650.5850m    124.4151m  
    4.20000n    -16.8688m    755.0717m  
    4.21000n     -2.5468     702.6798m  
    4.22000n     -2.4452     751.6794m  
    4.23000n     -2.1303     756.3653m  
    4.24000n     -1.5973     760.5797m  
    4.25000n   -964.2923m    762.4432m  
    4.26000n    314.7202m    259.2940m  
    4.27000n      3.4606    -149.9049m  
    4.28000n      3.6249     -74.0467m  
    4.29000n      3.7685      76.6021m  
    4.30000n      3.4280      19.5772m  
    4.31000n      2.7497     -11.7105m  
    4.32000n      1.9604     -13.5534m  
    4.33000n    485.1136m    600.5272m  
    4.34000n    -11.2806m    752.4369m  
    4.35000n      6.7606m    757.0391m  
    4.36000n      6.1878m    750.1374m  
    4.37000n      4.8385m    750.0205m  
    4.38000n      2.9852m    749.9600m  
    4.39000n    841.7387u    749.9535m  
    4.40000n     -2.3145m    749.9340m  
    4.41000n     -5.5504m    749.9307m  
    4.42000n     -7.2807m    749.9565m  
    4.43000n    -10.3257m    749.9361m  
    4.44000n   -254.4961m    745.4880m  
    4.45000n     -1.1761     732.8993m  
    4.46000n     -1.9654     735.0033m  
    4.47000n     -2.4861     740.0026m  
    4.48000n     -2.5247     749.1970m  
    4.49000n     -2.4418     751.6556m  
    4.50000n     -2.2095     754.6105m  
    4.51000n     -1.8847     756.5819m  
    4.52000n     -1.4099     759.0650m  
    4.53000n   -773.4274m    762.2878m  
    4.54000n   -309.6123m    823.4083m  
    4.55000n     -1.3559     922.6596m  
    4.56000n     -2.2535     744.8299m  
    4.57000n     -2.4474     746.7586m  
    4.58000n     -2.4663     749.6900m  
    4.59000n     -2.3528     752.6558m  
    4.60000n     -2.1300     754.3435m  
    4.61000n     -1.7744     756.8363m  
    4.62000n     -1.2707     759.5914m  
    4.63000n    -46.4241m    774.2374m  
    4.64000n    -18.8618m    752.4136m  
    4.65000n   -192.2696m    738.7416m  
    4.66000n   -226.8390m    750.3581m  
    4.67000n    -22.6795m    754.9403m  
    4.68000n     -1.3733m    750.5690m  
    4.69000n    -66.0478u    750.0330m  
    4.70000n    109.9566u    750.0015m  
    4.71000n     42.1104m    750.8222m  
    4.72000n    730.9101u    749.2118m  
    4.73000n     -4.2683m    749.8784m  
    4.74000n     -6.5900m    749.9423m  
    4.75000n     -8.0068m    749.9679m  
    4.76000n     -8.9653m    749.9773m  
    4.77000n    -11.4700m    749.9448m  
    4.78000n     -2.3498m    750.2902m  
    4.79000n   -124.6891u    750.0476m  
    4.80000n     -2.3148u    750.0019m  
    4.81000n     -2.2273u    749.9975m  
    4.82000n      2.5150u    749.9975m  
    4.83000n      3.2029u    749.9974m  
    4.84000n      3.2741u    749.9974m  
    4.85000n      3.2805u    749.9974m  
    4.86000n      3.2810u    749.9974m  
    4.87000n      3.2810u    749.9974m  
    4.88000n      3.2810u    749.9974m  
    4.89000n      3.2810u    749.9974m  
    4.90000n      3.2810u    749.9974m  
    4.91000n      3.2810u    749.9974m  
    4.92000n      3.2810u    749.9974m  
    4.93000n      3.2810u    749.9974m  
    4.94000n      3.2810u    749.9974m  
    4.95000n      3.2810u    749.9974m  
    4.96000n      3.2810u    749.9974m  
    4.97000n      3.2810u    749.9974m  
    4.98000n      3.2810u    749.9974m  
    4.99000n      3.2810u    749.9974m  
    5.00000n      3.2810u    749.9974m  
    5.01000n      3.2810u    749.9974m  
    5.02000n      3.2810u    749.9974m  
    5.03000n      3.2810u    749.9974m  
    5.04000n      3.2810u    749.9974m  
    5.05000n      3.2810u    749.9974m  
    5.06000n      3.2810u    749.9974m  
    5.07000n      3.2810u    749.9974m  
    5.08000n      3.2810u    749.9974m  
    5.09000n      3.2810u    749.9974m  
    5.10000n      3.2810u    749.9974m  
    5.11000n      3.2810u    749.9974m  
    5.12000n      3.2810u    749.9974m  
    5.13000n      3.2810u    749.9974m  
    5.14000n      3.2810u    749.9974m  
    5.15000n      3.2810u    749.9974m  
    5.16000n      3.2810u    749.9974m  
    5.17000n      3.2810u    749.9974m  
    5.18000n      3.2810u    749.9974m  
    5.19000n      3.2810u    749.9974m  
    5.20000n      3.2810u    749.9974m  
    5.21000n      3.2810u    749.9974m  
    5.22000n      3.2810u    749.9974m  
    5.23000n      3.2810u    749.9974m  
    5.24000n      3.2810u    749.9974m  
    5.25000n      3.2810u    749.9974m  
    5.26000n      3.2810u    749.9974m  
    5.27000n      3.2810u    749.9974m  
    5.28000n      3.2810u    749.9974m  
    5.29000n      3.2810u    749.9974m  
    5.30000n      3.2810u    749.9974m  
    5.31000n      3.2810u    749.9974m  
    5.32000n      3.2810u    749.9974m  
    5.33000n      3.2810u    749.9974m  
    5.34000n      3.2810u    749.9974m  
    5.35000n      3.2810u    749.9974m  
    5.36000n      3.2810u    749.9974m  
    5.37000n      3.2810u    749.9974m  
    5.38000n      3.2810u    749.9974m  
    5.39000n      3.2810u    749.9974m  
    5.40000n      3.2810u    749.9974m  
    5.41000n      3.2810u    749.9974m  
    5.42000n      3.2810u    749.9974m  
    5.43000n      3.2810u    749.9974m  
    5.44000n      3.2810u    749.9974m  
    5.45000n      3.2810u    749.9974m  
    5.46000n      3.2810u    749.9974m  
    5.47000n      3.2810u    749.9974m  
    5.48000n      3.2810u    749.9974m  
    5.49000n      3.2810u    749.9974m  
    5.50000n      3.2810u    749.9974m  
    5.51000n      3.2810u    749.9974m  
    5.52000n      3.2810u    749.9974m  
    5.53000n      3.2810u    749.9974m  
    5.54000n      3.2810u    749.9974m  
    5.55000n      3.2810u    749.9974m  
    5.56000n      3.2810u    749.9974m  
    5.57000n      3.2810u    749.9974m  
    5.58000n      3.2810u    749.9974m  
    5.59000n      3.2810u    749.9974m  
    5.60000n      3.2810u    749.9974m  
    5.61000n      3.2810u    749.9974m  
    5.62000n      3.2810u    749.9974m  
    5.63000n      3.2810u    749.9974m  
    5.64000n      3.2810u    749.9974m  
    5.65000n      3.2810u    749.9974m  
    5.66000n      3.2810u    749.9974m  
    5.67000n      3.2810u    749.9974m  
    5.68000n      3.2810u    749.9974m  
    5.69000n      3.2810u    749.9974m  
    5.70000n      3.2810u    749.9974m  
    5.71000n      3.2810u    749.9974m  
    5.72000n      3.2810u    749.9974m  
    5.73000n      3.2810u    749.9974m  
    5.74000n      3.2810u    749.9974m  
    5.75000n      3.2810u    749.9974m  
    5.76000n      3.2810u    749.9974m  
    5.77000n      3.2810u    749.9974m  
    5.78000n      3.2810u    749.9974m  
    5.79000n      3.2810u    749.9974m  
    5.80000n      3.2810u    749.9974m  
    5.81000n      3.2810u    749.9974m  
    5.82000n      3.2810u    749.9974m  
    5.83000n      3.2810u    749.9974m  
    5.84000n      3.2810u    749.9974m  
    5.85000n      3.2810u    749.9974m  
    5.86000n      3.2810u    749.9974m  
    5.87000n      3.2810u    749.9974m  
    5.88000n      3.2810u    749.9974m  
    5.89000n      3.2810u    749.9974m  
    5.90000n      3.2810u    749.9974m  
    5.91000n      3.2810u    749.9974m  
    5.92000n      3.2810u    749.9974m  
    5.93000n      3.2810u    749.9974m  
    5.94000n      3.2810u    749.9974m  
    5.95000n      3.2810u    749.9974m  
    5.96000n      3.2810u    749.9974m  
    5.97000n      3.2810u    749.9974m  
    5.98000n      3.2810u    749.9974m  
    5.99000n      3.2810u    749.9974m  
    6.00000n      3.2810u    749.9974m  
    6.01000n      3.2810u    749.9974m  
    6.02000n      3.2810u    749.9974m  
    6.03000n      3.2810u    749.9974m  
    6.04000n      3.2810u    749.9974m  
    6.05000n      3.2810u    749.9974m  
    6.06000n      3.2810u    749.9974m  
    6.07000n      3.2810u    749.9974m  
    6.08000n      3.2810u    749.9974m  
    6.09000n      3.2810u    749.9974m  
    6.10000n      3.2810u    749.9974m  
    6.11000n      3.2810u    749.9974m  
    6.12000n      3.2810u    749.9974m  
    6.13000n      3.2810u    749.9974m  
    6.14000n      3.2810u    749.9974m  
    6.15000n      3.2810u    749.9974m  
    6.16000n      3.2810u    749.9974m  
    6.17000n      3.2810u    749.9974m  
    6.18000n      3.2810u    749.9974m  
    6.19000n      3.2810u    749.9974m  
    6.20000n      3.2810u    749.9974m  
    6.21000n      3.2810u    749.9974m  
    6.22000n      3.2810u    749.9974m  
    6.23000n      3.2810u    749.9974m  
    6.24000n      3.2810u    749.9974m  
    6.25000n      3.2810u    749.9974m  
    6.26000n      3.2810u    749.9974m  
    6.27000n      3.2810u    749.9974m  
    6.28000n      3.2810u    749.9974m  
    6.29000n      3.2810u    749.9974m  
    6.30000n      3.2810u    749.9974m  
    6.31000n      3.2810u    749.9974m  
    6.32000n      3.2810u    749.9974m  
    6.33000n      3.2810u    749.9974m  
    6.34000n      3.2810u    749.9974m  
    6.35000n      3.2810u    749.9974m  
    6.36000n      3.2810u    749.9974m  
    6.37000n      3.2810u    749.9974m  
    6.38000n      3.2810u    749.9974m  
    6.39000n      3.2810u    749.9974m  
    6.40000n      3.2810u    749.9974m  
    6.41000n      3.2810u    749.9974m  
    6.42000n      3.2810u    749.9974m  
    6.43000n      3.2810u    749.9974m  
    6.44000n      3.2810u    749.9974m  
    6.45000n      3.2810u    749.9974m  
    6.46000n      3.2810u    749.9974m  
    6.47000n      3.2810u    749.9974m  
    6.48000n      3.2810u    749.9974m  
    6.49000n      3.2810u    749.9974m  
    6.50000n      3.2810u    749.9974m  
    6.51000n      3.2810u    749.9974m  
    6.52000n      3.2810u    749.9974m  
    6.53000n      3.2810u    749.9974m  
    6.54000n      3.2810u    749.9974m  
    6.55000n      3.2810u    749.9974m  
    6.56000n      3.2810u    749.9974m  
    6.57000n      3.2810u    749.9974m  
    6.58000n      3.2810u    749.9974m  
    6.59000n      3.2810u    749.9974m  
    6.60000n      3.2810u    749.9974m  
    6.61000n      3.2810u    749.9974m  
    6.62000n      3.2810u    749.9974m  
    6.63000n      3.2810u    749.9974m  
    6.64000n      3.2810u    749.9974m  
    6.65000n      3.2810u    749.9974m  
    6.66000n      3.2810u    749.9974m  
    6.67000n      3.2810u    749.9974m  
    6.68000n      3.2810u    749.9974m  
    6.69000n      3.2810u    749.9974m  
    6.70000n      3.2810u    749.9974m  
    6.71000n      3.2810u    749.9974m  
    6.72000n      3.2810u    749.9974m  
    6.73000n      3.2810u    749.9974m  
    6.74000n      3.2810u    749.9974m  
    6.75000n      3.2810u    749.9974m  
    6.76000n      3.2810u    749.9974m  
    6.77000n      3.2810u    749.9974m  
    6.78000n      3.2810u    749.9974m  
    6.79000n      3.2810u    749.9974m  
    6.80000n      3.2810u    749.9974m  
    6.81000n      3.2810u    749.9974m  
    6.82000n      3.2810u    749.9974m  
    6.83000n      3.2810u    749.9974m  
    6.84000n      3.2810u    749.9974m  
    6.85000n      3.2810u    749.9974m  
    6.86000n      3.2810u    749.9974m  
    6.87000n      3.2810u    749.9974m  
    6.88000n      3.2810u    749.9974m  
    6.89000n      3.2810u    749.9974m  
    6.90000n      3.2810u    749.9974m  
    6.91000n      3.2810u    749.9974m  
    6.92000n      3.2810u    749.9974m  
    6.93000n      3.2810u    749.9974m  
    6.94000n      3.2810u    749.9974m  
    6.95000n      3.2810u    749.9974m  
    6.96000n      3.2810u    749.9974m  
    6.97000n      3.2810u    749.9974m  
    6.98000n      3.2810u    749.9974m  
    6.99000n      3.2810u    749.9974m  
    7.00000n      3.2810u    749.9974m  
    7.01000n      3.2810u    749.9974m  
    7.02000n      3.2810u    749.9974m  
    7.03000n      3.2810u    749.9974m  
    7.04000n      3.2810u    749.9974m  
    7.05000n      3.2810u    749.9974m  
    7.06000n      3.2810u    749.9974m  
    7.07000n      3.2810u    749.9974m  
    7.08000n      3.2810u    749.9974m  
    7.09000n      3.2810u    749.9974m  
    7.10000n      3.2810u    749.9974m  
    7.11000n      3.2810u    749.9974m  
    7.12000n      3.2810u    749.9974m  
    7.13000n      3.2810u    749.9974m  
    7.14000n      3.2810u    749.9974m  
    7.15000n      3.2810u    749.9974m  
    7.16000n      3.2810u    749.9974m  
    7.17000n      3.2810u    749.9974m  
    7.18000n      3.2810u    749.9974m  
    7.19000n      3.2810u    749.9974m  
    7.20000n      3.2810u    749.9974m  
    7.21000n      3.2810u    749.9974m  
    7.22000n      3.2810u    749.9974m  
    7.23000n      3.2810u    749.9974m  
    7.24000n      3.2810u    749.9974m  
    7.25000n      3.2810u    749.9974m  
    7.26000n      3.2810u    749.9974m  
    7.27000n      3.2810u    749.9974m  
    7.28000n      3.2810u    749.9974m  
    7.29000n      3.2810u    749.9974m  
    7.30000n      3.2810u    749.9974m  
    7.31000n      3.2810u    749.9974m  
    7.32000n      3.2810u    749.9974m  
    7.33000n      3.2810u    749.9974m  
    7.34000n      3.2810u    749.9974m  
    7.35000n      3.2810u    749.9974m  
    7.36000n      3.2810u    749.9974m  
    7.37000n      3.2810u    749.9974m  
    7.38000n      3.2810u    749.9974m  
    7.39000n      3.2810u    749.9974m  
    7.40000n      3.2810u    749.9974m  
    7.41000n      3.2810u    749.9974m  
    7.42000n      3.2810u    749.9974m  
    7.43000n      3.2810u    749.9974m  
    7.44000n      3.2810u    749.9974m  
    7.45000n      3.2810u    749.9974m  
    7.46000n      3.2810u    749.9974m  
    7.47000n      3.2810u    749.9974m  
    7.48000n      3.2810u    749.9974m  
    7.49000n      3.2810u    749.9974m  
    7.50000n      3.2810u    749.9974m  
    7.51000n      3.2810u    749.9974m  
    7.52000n      3.2810u    749.9974m  
    7.53000n      3.2810u    749.9974m  
    7.54000n      3.2810u    749.9974m  
    7.55000n      3.2810u    749.9974m  
    7.56000n      3.2810u    749.9974m  
    7.57000n      3.2810u    749.9974m  
    7.58000n      3.2810u    749.9974m  
    7.59000n      3.2810u    749.9974m  
    7.60000n      3.2810u    749.9974m  
    7.61000n      3.2810u    749.9974m  
    7.62000n      3.2810u    749.9974m  
    7.63000n      3.2810u    749.9974m  
    7.64000n      3.2810u    749.9974m  
    7.65000n      3.2810u    749.9974m  
    7.66000n      3.2810u    749.9974m  
    7.67000n      3.2810u    749.9974m  
    7.68000n      3.2810u    749.9974m  
    7.69000n      3.2810u    749.9974m  
    7.70000n      3.2810u    749.9974m  
    7.71000n      3.2810u    749.9974m  
    7.72000n      3.2810u    749.9974m  
    7.73000n      3.2810u    749.9974m  
    7.74000n      3.2810u    749.9974m  
    7.75000n      3.2810u    749.9974m  
    7.76000n      3.2810u    749.9974m  
    7.77000n      3.2810u    749.9974m  
    7.78000n      3.2810u    749.9974m  
    7.79000n      3.2810u    749.9974m  
    7.80000n      3.2810u    749.9974m  
    7.81000n      3.2810u    749.9974m  
    7.82000n      3.2810u    749.9974m  
    7.83000n      3.2810u    749.9974m  
    7.84000n      3.2810u    749.9974m  
    7.85000n      3.2810u    749.9974m  
    7.86000n      3.2810u    749.9974m  
    7.87000n      3.2810u    749.9974m  
    7.88000n      3.2810u    749.9974m  
    7.89000n      3.2810u    749.9974m  
    7.90000n      3.2810u    749.9974m  
    7.91000n      3.2810u    749.9974m  
    7.92000n      3.2810u    749.9974m  
    7.93000n      3.2810u    749.9974m  
    7.94000n      3.2810u    749.9974m  
    7.95000n      3.2810u    749.9974m  
    7.96000n      3.2810u    749.9974m  
    7.97000n      3.2810u    749.9974m  
    7.98000n      3.2810u    749.9974m  
    7.99000n      3.2810u    749.9974m  
    8.00000n      3.2810u    749.9974m  
y
 inv_avg_power00=  28.9403u  from=   0.          to=   8.0000n
 peakpower00=   1.3998m    at=   4.0555n
             from=   0.         to=   8.0000n
 power_avg= 525.8824u  from=   0.          to=   8.0000n
 avg_power= 7.494e+28  from=   0.          to=   8.0000n

          ***** job concluded
1****** HSPICE -- F-2011.09-SP2 64-BIT (Feb 27 2012) linux ******               
 ******  
 $this uut was automatically generated by:

  ******  job statistics summary tnom=  25.000 temp=  25.000 *****
  
  
 ******  Machine Information  ******
 CPU:
 model name	: Intel(R) Xeon(R) CPU E5-2650 v4 @ 2.20GHz
 cpu MHz	: 1734.906
  
 OS:
 Linux version 3.10.0-693.17.1.el7.x86_64 (mockbuild@x86-041.build.eng.bos.redha
 t.com) (gcc version 4.8.5 20150623 (Red Hat 4.8.5-16) (GCC) ) #1 SMP Sun Jan 14
  10:36:03 EST 2018


  ******  HSPICE Threads Information  ******

  Command Line Threads Count :     1
  Available CPU Count        :    24
  Actual Threads Count       :     1


  ******  Circuit Statistics  ******
  # nodes       =      83 # elements   =      34
  # resistors   =       0 # capacitors =       0 # inductors   =       0
  # mutual_inds =       0 # vccs       =       0 # vcvs        =       0
  # cccs        =       0 # ccvs       =       0 # volt_srcs   =       4
  # curr_srcs   =       0 # diodes     =       0 # bjts        =       0
  # jfets       =       0 # mosfets    =      30 # U elements  =       0
  # T elements  =       0 # W elements =       0 # B elements  =       0
  # S elements  =       0 # P elements =       0 # va device   =       0
  # vector_srcs =       0


  ******  Runtime Statistics (seconds)  ******

  analysis           time    # points   tot. iter  conv.iter
  op point           0.03           1         113
  transient          0.33         801        2169         353 rev=        28
  readin             0.01
  errchk             0.00
  setup              0.00
  output             0.01


           peak memory used        135.46 megabytes
           total cpu time            0.38 seconds
           total elapsed time        0.63 seconds
           job started at     18:49:40 09/11/2020
           job ended   at     18:49:40 09/11/2020


 lic: Release hspice token(s) 
