***** HSPICE -- F-2011.09-SP2 64-BIT (Feb 27 2012) linux ******
 Input File: ptm16hp.sp
 lic:
 lic: FLEXlm: v10.8
 lic: USER:   iliabautista         HOSTNAME: itn2.rc.usf.edu
 lic: HOSTID:                      PID:      17596
 lic: Using FLEXlm license file:
 lic: 27000@license0.rc.usf.edu
 lic: Checkout 1 hspice
 lic: License/Maintenance for hspice will expire on 18-jul-2021/2019.06
 lic: 1(in_use)/50(total) FLOATING license(s) on SERVER license0.rc.usf.edu
 lic:
 init: begin read circuit files,  cpu clock=  3.00E-02
       option post     =     2.00
 init: end read circuit files,  cpu clock=  3.00E-02 memory=       158 kb
 init: begin check errors,  cpu clock=  3.00E-02
 **warning**  No DC path to ground from node        0:                outin_40
 init: end check errors,  cpu clock=  3.00E-02 memory=       424 kb
 init: begin setup matrix, pivot=     0 cpu clock=  3.00E-02
       establish matrix -- done,  cpu clock=  3.00E-02 memory=       478 kb
       re-order matrix -- done,  cpu clock=  3.00E-02 memory=       468 kb
 init: end setup matrix,  cpu clock=  3.00E-02 memory=       563 kb
 dcop: begin dcop,  cpu clock=  3.00E-02
 dcop: end dcop,  cpu clock=  9.00E-02 memory=       563 kb  tot_iter=     221
 output: ptm16hp.mt0
 sweep: tran tran0    begin, stop_t=  8.00E-09 #sweeps= 801 cpu clock=  9.00E-02
 tran: time= 9.3420E-10 tot_iter=     107 conv_iter=      28 cpu clock= 1.20E-01
 tran: time= 1.8456E-09 tot_iter=     253 conv_iter=      51 cpu clock= 1.30E-01
 tran: time= 2.4167E-09 tot_iter=     757 conv_iter=     108 cpu clock= 1.80E-01
 tran: time= 3.2609E-09 tot_iter=     867 conv_iter=     134 cpu clock= 1.90E-01
 tran: time= 4.0000E-09 tot_iter=     873 conv_iter=     137 cpu clock= 1.90E-01
 tran: time= 4.8804E-09 tot_iter=    1371 conv_iter=     195 cpu clock= 2.60E-01
 tran: time= 5.7875E-09 tot_iter=    1674 conv_iter=     232 cpu clock= 2.90E-01
 tran: time= 6.4875E-09 tot_iter=    2001 conv_iter=     279 cpu clock= 3.20E-01
 tran: time= 7.2373E-09 tot_iter=    2382 conv_iter=     322 cpu clock= 3.60E-01
 tran: time= 8.0000E-09 tot_iter=    2389 conv_iter=     325 cpu clock= 3.60E-01
 sweep: tran tran0    end,  cpu clock=  3.60E-01 memory=       564 kb
>info:         ***** hspice job concluded
 lic: Release hspice token(s)
