$DATA1 SOURCE='HSPICE' VERSION='F-2011.09-SP2 64-BIT'
.TITLE '$this uut was automatically generated by:'
 inv_avg_power0   peakpower0       trf_delay_01     tfr_delay_01      
 trf_delay_02     tfr_delay_02     trf_delay_03     tfr_delay_03      
 trf_delay_04     tfr_delay_04     inv_avg_power1   peakpower1        
 trf_delay_11     tfr_delay_11     trf_delay_12     tfr_delay_12      
 inv_avg_power2   peakpower2       trf_delay_21     tfr_delay_21      
 power_avg        avg_power        temper           alter#            
  1.020e-07        1.406e-05        5.715e-12        6.066e-12        
  5.845e-12        6.369e-12        5.966e-12        6.088e-12        
  6.160e-12        5.971e-12        5.398e-08        1.557e-05        
  5.715e-12        5.612e-12        5.966e-12        5.595e-12        
  2.690e-08        1.391e-05        5.715e-12        5.706e-12        
  3.649e-07       -3.055e-07         25.0000        1                 
