$DATA1 SOURCE='HSPICE' VERSION='F-2011.09-SP2 64-BIT'
.TITLE '$this uut was automatically generated by:'
 power_avg        avg_power        inv_avg_power    peakpower         
 trf_delay_1      tfr_delay_1      trf_delay_2      tfr_delay_2       
 temper           alter#            
  4.278e-06       -4.170e-06        7.699e-07        2.813e-05        
  4.614e-12        5.073e-12        4.677e-12        4.273e-12        
   25.0000        1                 
