***** HSPICE -- F-2011.09-SP2 64-BIT (Feb 27 2012) linux ******
 Input File: ptm14lstp.sp
 lic:
 lic: FLEXlm: v10.8
 lic: USER:   iliabautista         HOSTNAME: itn2.rc.usf.edu
 lic: HOSTID:                      PID:      17694
 lic: Using FLEXlm license file:
 lic: 27000@license0.rc.usf.edu
 lic: Checkout 1 hspice
 lic: License/Maintenance for hspice will expire on 18-jul-2021/2019.06
 lic: 1(in_use)/50(total) FLOATING license(s) on SERVER license0.rc.usf.edu
 lic:
 init: begin read circuit files,  cpu clock=  2.00E-02
       option post     =     2.00
 init: end read circuit files,  cpu clock=  3.00E-02 memory=       158 kb
 init: begin check errors,  cpu clock=  3.00E-02
 **warning**  No DC path to ground from node        0:                outin_40
 init: end check errors,  cpu clock=  3.00E-02 memory=       424 kb
 init: begin setup matrix, pivot=     0 cpu clock=  3.00E-02
       establish matrix -- done,  cpu clock=  3.00E-02 memory=       478 kb
       re-order matrix -- done,  cpu clock=  3.00E-02 memory=       468 kb
 init: end setup matrix,  cpu clock=  3.00E-02 memory=       563 kb
 dcop: begin dcop,  cpu clock=  3.00E-02
 dcop: end dcop,  cpu clock=  6.00E-02 memory=       563 kb  tot_iter=     113
 output: ptm14lstp.mt0
 sweep: tran tran0    begin, stop_t=  8.00E-09 #sweeps= 801 cpu clock=  6.00E-02
 tran: time= 9.2761E-10 tot_iter=     105 conv_iter=      29 cpu clock= 8.00E-02
 tran: time= 1.8296E-09 tot_iter=     192 conv_iter=      50 cpu clock= 9.00E-02
 tran: time= 2.7739E-09 tot_iter=     668 conv_iter=     104 cpu clock= 1.30E-01
 tran: time= 3.2041E-09 tot_iter=     791 conv_iter=     131 cpu clock= 1.40E-01
 tran: time= 4.0000E-09 tot_iter=     797 conv_iter=     134 cpu clock= 1.40E-01
 tran: time= 4.9156E-09 tot_iter=     959 conv_iter=     172 cpu clock= 1.60E-01
 tran: time= 5.9141E-09 tot_iter=    1043 conv_iter=     193 cpu clock= 1.70E-01
 tran: time= 6.4465E-09 tot_iter=    1414 conv_iter=     248 cpu clock= 2.00E-01
 tran: time= 7.3121E-09 tot_iter=    1539 conv_iter=     279 cpu clock= 2.20E-01
 tran: time= 8.0000E-09 tot_iter=    1543 conv_iter=     281 cpu clock= 2.20E-01
 sweep: tran tran0    end,  cpu clock=  2.20E-01 memory=       564 kb
>info:         ***** hspice job concluded
 lic: Release hspice token(s)
