$DATA1 SOURCE='HSPICE' VERSION='F-2011.09-SP2 64-BIT'
.TITLE '$this uut was automatically generated by:'
 inv_avg_power00  peakpower00      inv_avg_power10  peakpower10       
 inv_avg_power01  peakpower01      inv_avg_power11  peakpower11       
 uut_grid_avg_power uut_grid_max_power source_power      
 trf_delay_001    tfr_delay_001    trf_delay_002    tfr_delay_002     
 trf_delay_101    tfr_delay_101    trf_delay_102    tfr_delay_102     
 trf_delay_011    tfr_delay_011    trf_delay_111    tfr_delay_111     
 temper           alter#            
  5.045e-06        1.504e-03        3.339e-07        4.494e-05        
  3.110e-07        2.373e-05        2.640e-07        2.124e-05        
  5.954e-06        1.550e-03        8.743e-06        2.372e-12        
  2.560e-12        2.173e-12        2.628e-12        5.370e-13        
  4.316e-13       -1.045e-09        1.347e-12        2.372e-12        
  1.002e-12       -8.054e-13        4.316e-13         25.0000         
 1                 
