$DATA1 SOURCE='HSPICE' VERSION='F-2011.09-SP2 64-BIT'
.TITLE '$this uut was automatically generated by:'
 trf_delay_001    tfr_delay_001    trf_delay_002    tfr_delay_002     
 trf_delay_003    tfr_delay_003    trf_delay_004    tfr_delay_004     
 trf_delay_101    tfr_delay_101    trf_delay_102    tfr_delay_102     
 trf_delay_103    tfr_delay_103    trf_delay_104    tfr_delay_104     
 trf_delay_201    tfr_delay_201    trf_delay_202    tfr_delay_202     
 trf_delay_203    tfr_delay_203    trf_delay_204    tfr_delay_204     
 trf_delay_011    tfr_delay_011    trf_delay_012    tfr_delay_012     
 trf_delay_111    tfr_delay_111    trf_delay_112    tfr_delay_112     
 trf_delay_211    tfr_delay_211    trf_delay_212    tfr_delay_212     
 trf_delay_021    tfr_delay_021    trf_delay_121    tfr_delay_121     
 trf_delay_221    tfr_delay_221    inv_avg_power00  peakpower00       
 power_avg        avg_power        temper           alter#            
  2.110e-12        2.357e-12        2.067e-12        2.081e-12        
  1.917e-12        2.332e-12        2.101e-12        1.088e-12        
  1.699e-12        1.616e-12        1.638e-12        1.408e-12        
  1.206e-12        1.596e-12        1.428e-12        1.354e-12        
  1.074e-12        1.125e-12        8.475e-13        5.006e-16        
  9.998e-13        9.376e-13        6.316e-13        1.583e-12        
  2.110e-12        1.411e-12        1.917e-12        2.358e-12        
  7.310e-13        1.616e-12        1.795e-12        1.596e-12        
  1.074e-12       -1.211e-13        9.998e-13        5.749e-13        
  2.110e-12        2.323e-12        1.748e-12        1.616e-12        
  1.074e-12        4.995e-13        1.432e-06        3.461e-04        
  2.170e-05        3.787e+11         25.0000        1                 
