 ****** HSPICE -- F-2011.09-SP2 64-BIT (Feb 27 2012) linux ******               
  Copyright (C) 2011 Synopsys, Inc. All Rights Reserved.                        
  Unpublished-rights reserved under US copyright laws.
  This program is protected by law and is subject to the
  terms and conditions of the license agreement from Synopsys.
  Use of this program is your acceptance to be bound by the
  license agreement. HSPICE is the trademark of Synopsys, Inc.
  Input File: ptm10hp.sp                                                        
  Command line options: ptm10hp.sp
 lic:  
 lic: FLEXlm: v10.8 
 lic: USER:   iliabautista         HOSTNAME: itn2.rc.usf.edu 
 lic: HOSTID:                      PID:      17617 
 lic: Using FLEXlm license file: 
 lic: 27000@license0.rc.usf.edu 
 lic: Checkout 1 hspice 
 lic: License/Maintenance for hspice will expire on 18-jul-2021/2019.06 
 lic: 1(in_use)/50(total) FLOATING license(s) on SERVER license0.rc.usf.edu 
 lic:   
  **warning** (../modelfiles/hp/10nfet.pm:4) Model nfet device geometries will not be checked against the limits set by lmin, lmax, nfinmin and nfinmax. To enable this check, add a period(.) to the model name(i.e. enable model selector).
1****** HSPICE -- F-2011.09-SP2 64-BIT (Feb 27 2012) linux ******               
 ******  
 $this uut was automatically generated by:

  ******  circuit name directory
 circuit number to circuit name directory
   number circuitname                     definition         multiplier
        0 main circuit
        1 xinput_0.                       inverter           1.00 
        2 xinput_1.                       inverter           1.00 
        3 xinput_2.                       inverter           1.00 
        4 xinverter00.                    inverter           1.00 
        5 xinverter10.                    inverter           1.00 
        6 xinverter20.                    inverter           1.00 
        7 xinverter01.                    inverter           1.00 
        8 xinverter11.                    inverter           1.00 
        9 xinverter21.                    inverter           1.00 
       10 xinverter02.                    inverter           1.00 
       11 xinverter12.                    inverter           1.00 
       12 xinverter22.                    inverter           1.00 
       13 xoutput_00.                     inverter           1.00 
       14 xoutput_10.                     inverter           1.00 
       15 xoutput_20.                     inverter           1.00 
       16 xinput_0.xpfet.                 pfet               1.00 
       17 xinput_0.xnfet.                 nfet               1.00 
       18 xinput_1.xpfet.                 pfet               1.00 
       19 xinput_1.xnfet.                 nfet               1.00 
       20 xinput_2.xpfet.                 pfet               1.00 
       21 xinput_2.xnfet.                 nfet               1.00 
       22 xinverter00.xpfet.              pfet               1.00 
       23 xinverter00.xnfet.              nfet               1.00 
       24 xinverter10.xpfet.              pfet               1.00 
       25 xinverter10.xnfet.              nfet               1.00 
       26 xinverter20.xpfet.              pfet               1.00 
       27 xinverter20.xnfet.              nfet               1.00 
       28 xinverter01.xpfet.              pfet               1.00 
       29 xinverter01.xnfet.              nfet               1.00 
       30 xinverter11.xpfet.              pfet               1.00 
       31 xinverter11.xnfet.              nfet               1.00 
       32 xinverter21.xpfet.              pfet               1.00 
       33 xinverter21.xnfet.              nfet               1.00 
       34 xinverter02.xpfet.              pfet               1.00 
       35 xinverter02.xnfet.              nfet               1.00 
       36 xinverter12.xpfet.              pfet               1.00 
       37 xinverter12.xnfet.              nfet               1.00 
       38 xinverter22.xpfet.              pfet               1.00 
       39 xinverter22.xnfet.              nfet               1.00 
       40 xoutput_00.xpfet.               pfet               1.00 
       41 xoutput_00.xnfet.               nfet               1.00 
       42 xoutput_10.xpfet.               pfet               1.00 
       43 xoutput_10.xnfet.               nfet               1.00 
       44 xoutput_20.xpfet.               pfet               1.00 
       45 xoutput_20.xnfet.               nfet               1.00 
1****** HSPICE -- F-2011.09-SP2 64-BIT (Feb 27 2012) linux ******               
 ******  
 $this uut was automatically generated by:

  ******  mos   model parameters tnom=  25.000 temp=  25.000 *****
 Model Name: pfet 
 BSIM-MG BULK Model(Level72)
   VERSION = 105.03  
   DEVTYPE = -1 
   BULKMOD = 1  
   COREMOD = 0 
   GEOMOD = 1 
   RDSMOD = 1 
   IGCMOD = 1 
   IGBMOD = 1 
   GIDLMOD = 0 
   IIMOD = 0 
   NQSMOD = 0 
   SHMOD = 0 
   RGATEMOD = 0 
   RGEOMOD = 1 
   CGEOMOD = 2 
   CAPMOD = 0 
   LINT =  6e-10 m
   LL =      0 m^(LLN+1)
   LLN =      1 
   DLC =      0 m
   DLBIN =      0 
   LLC =      0 m^(LLN+1)
   EOT = 6.8e-10 m
   TOXP = 1.2e-09 m
   EOTBOX = 1.4e-07 m
   HFIN = 2.1e-08 m
   FECH =      1 
   DELTAW =      0 m
   FECHCV =      1 
   DELTAWCV =      0 m
   NBODY = 2.5e+22 m^-3
   NSD =  3e+26 m^-3
   PHIG =  4.751 eV
   EPSROX =    3.9 
   EPSRSUB =   11.9 
   EASUB =   4.05 eV
   NI0SUB = 1.1e+16 m^-3
   BG0SUB =   1.12 eV
   NC0SUB = 2.86e+25 m^-3
   NGATE =      0 m^-3
   CIT = 1.3e-05 F/m^2
   CDSC =  0.032 F/m^2
   CDSCD =  0.007 F/m^2
   CDSCDR =  0.007 
   DVT0 =   0.01 
   DVT1 =   0.69 
   PHIN =   0.05 V
   ETA0 =   0.93 
   ETA0R =   0.93 
   DSUB =    0.9 
   K1RSCE =      0 V^1/2
   LPE0 =  5e-09 m
   DVTSHIFT =      0 
   QMFACTOR =      0 
   QMTCENIV =      0 
   QMTCENCV =      0 
   AQMTCEN =      0 
   BQMTCEN = 1.2e-08 
   ETAQM =   0.54 
   QM0 = 0.001143 
   PQM =   0.66 
   QM0ACC =  0.001 
   PQMACC =   0.66 
   VSAT = 1.29e+05 
   AVSAT =      0 
   BVSAT =  1e-07 
   VSAT1 = 1.29e+05 
   AVSAT1 =      0 
   BVSAT1 =  1e-07 
   DELTAVSAT =      1 
   KSATIV =    0.8 
   MEXP =      3 
   AMEXP =      0 
   BMEXP =      1 
   PTWG =      0 
   APTWG =      0 
   BPTWG =  1e-07 
   AT = -0.00156 
   TMEXP =      0 
   PTWGT =  0.004 
   U0 = 0.0376 
   ETAMOB =      2 
   UP =      0 
   LPA =      1 
   UA =    0.3 
   AUA =      0 
   BUA =  1e-07 
   EU =    1.8 
   AEU =      0 
   BEU =  1e-07 
   UD =      0 
   AUD =      0 
   BUD =  5e-08 
   UCS =      0 
   UTE =      0 
   UTL = -0.0015 
   UA1 = 0.001032 
   UD1 =      0 
   UCSTE = -0.00478 
   RDSWMIN =      0 
   RDSW =    100 
   ARDSW =      0 
   BRDSW =  1e-07 
   RSWMIN =      0 
   RSW =      0 
   ARSW =      0 
   BRSW =  1e-07 
   RDWMIN =      0 
   RDW =      0 
   ARDW =      0 
   BRDW =  1e-07 
   PRWG =      0 
   WR =      1 
   PRT =  0.001 
   PDIBL1 =    1.3 
   PDIBL2 = 0.0002 
   DROUT =   1.06 
   PVAG =      1 
   PCLM =    0.2 
   APCLM =      0 
   BPCLM =  1e-07 
   PCLMG =      0 
   VASAT =    0.6 
   PCLMCV =  0.013 
   PCLMGCV =      0 
   VASATCV =    0.2 
   RGEXT =      0 ohm
   RGFIN =  0.001 ohm
   RSHS =      0 ohm
   RSHD =      0 ohm
   HEPI = 8.5e-09 m
   TSILI =  7e-09 m
   RHOC =  7e-13 ohm/m^2
   RHORSD =      1 ohm/m
   RHOEXT =      1 ohm/m
   CRATIO =    0.5 
   DELTAPRSD =      0 m
   SDTERM = 0 
   LSP = 2.8e-09 m
   LDG =  2e-09 m
   EPSRSP =    3.9 
   TGATE =  8e-09 m
   TMASK =      0 m
   ASILIEND =      0 m^2
   ARSDEND =      0 m^2
   PRSDEND =      0 m
   NSDE =  6e+25 m^-3
   RGEOA =      1 
   RGEOB =      0 m^-1
   RGEOC =      0 m^-1
   RGEOD =      0 m^-1
   RGEOE =      0 m^-1
   CGEOA =      1 
   CGEOB =      0 m^-1
   CGEOC =      0 m^-1
   CGEOD =      0 m^-1
   CGEOE =      1 
   AIGBINV = 0.0111 (Fs^2/g)^0.5m^-1
   BIGBINV =   0.03 (Fs^2/g)^0.5m^-1
   CIGBINV =  0.006 V^-1
   EIGBINV =    1.1 V
   NIGBINV =    1.2 
   AIGBACC = 0.0149 
   BIGBACC = 0.000949 
   CIGBACC =  0.075 
   NIGBACC =      3 
   AIGC = 0.0136 (Fs^2/g)^0.5m^-1
   BIGC = 0.00171 (Fs^2/g)^0.5m^-1V^-1
   CIGC =  0.075 V^-1
   NIGC =      1 
   DLCIGS =      0 m
   AIGS = 0.0136 (Fs^2/g)^0.5m^-1
   BIGS = 0.00171 (Fs^2/g)^0.5m^-1V^-1
   CIGS =  0.075 V^-1
   DLCIGD =      0 m
   AIGD = 0.0136 (Fs^2/g)^0.5m^-1
   BIGD = 0.00171 (Fs^2/g)^0.5m^-1V^-1
   CIGD =  0.075 V^-1
   POXEDGE =      1 
   AGIDL = 5.729e-12 ohm^-1
   BGIDL =  3e+08 V/m
   EGIDL =    0.1 V
   AGISL = 5.729e-12 ohm^-1
   BGISL =  3e+08 V/m
   EGISL =    0.1 V
   ALPHA0 =      0 mV^-1
   ALPHA1 =      0 V^-1
   BETA0 =     30 V^-1
   ALPHAII =      0 
   BETAII0 =      0 V^-1
   BETAII1 =      0 
   BETAII2 =    0.1 V
   ESATII =  1e+07 V/m
   LII =  5e-10 V/m
   SII0 =    0.5 V^-1
   SII1 =    0.1 
   SII2 =      0 V
   SIID =      0 V
   EOTACC = 6.8e-10 m
   DELVFBACC =      0 V
   CFS = 2.56e-11 F/m
   CFD = 2.65e-11 F/m
   COVS = 2.5e-11 F/m
   COVD = 2.5e-11 F/m
   CGSO =      0 F/m
   CGDO =      0 F/m
   CGSL =      0 F/m
   CGDL =      0 F/m
   CKAPPAS =    0.6 V
   CKAPPAD =    0.6 V
   CGBO =      0 F/m
   CGBL =      0 F/m
   CKAPPAB =    0.6 V
   CSDESW =      0 F/m
   CJS = 0.0005 F/m^2
   CJD = 0.0005 F/m^2
   CJSWS =  5e-10 F/m
   CJSWD =  5e-10 F/m
   CJSWGS =      0 F/m
   CJSWGD =      0 F/m
   PBS =      1 V
   PBD =      1 V
   PBSWS =      1 V
   PBSWD =      1 V
   PBSWGS =      1 V
   PBSWGD =      1 V
   MJS, =    0.5 
   MJD =    0.5 
   MJSWS =   0.33 
   MJSWD =   0.33 
   MJSWGS =   0.33 
   MJSWGD =   0.33 
   SJS =      0 
   SJD =      0 
   SJSWS =      0 
   SJSWD =      0 
   SJSWGS =      0 
   SJSWGD =      0 
   MJS2 =  0.125 
   MJD2 =  0.125 
   MJSWS2 =   0.33 
   MJSWD2 =   0.33 
   MJSWGS2 =   0.33 
   MJSWGD2 =   0.33 
   JSS = 0.0001 A/m^2
   JSD = 0.0001 A/m^2
   JSWS =      0 A/m
   JSWD =      0 A/m
   JSWGS =      0 A/m
   JSWGD =      0 A/m
   NJS =      1 
   NJD =      1 
   IJTHSFWD =    0.1 A
   IJTHDFWD =    0.1 A
   IJTHSREV =    0.1 A
   IJTHDREV =    0.1 A
   BVS =     10 V
   BVD =     10 V
   XJBVS =      1 
   XJBVD =      1 
   JTSS =      0 A/m^2
   JTSD =      0 A/m^2
   JTSSWS =      0 A/m
   JTSSWD =      0 A/m
   JTSSWGS =      0 A/m
   JTSSWGD =      0 A/m
   JTWEFF =      0 m
   NJTS =     20 
   NJTSD =     20 
   NJTSSW =     20 
   NJTSSWD =     20 
   NJTSSWG =     20 
   NJTSSWGD =     20 
   VTSS =     10 V
   VTSD =     10 V
   VTSSWS =     10 V
   VTSSWD =     10 V
   VTSSWGS =     10 V
   VTSSWGD =     10 V
   LINTIGEN =      0 m
   NTGEN =      1 
   AIGEN =      0 m^-3V^-1
   BIGEN =      0 m^-3V^-3
   XRCRG1 =     12 
   XRCRG2 =      1 
   NSEG = 5 
   EF =      1 
   EM = 4.1e+07 V/m
   NOIA = 6.25e+39 eV^-1s^1-EFm^-3
   NOIB = 3.125e+24 eV^-1s^1-EFm^-1
   NOIC = 8.75e+07 eV^-1s^1-EFm
   NTNOI =      1 
   TNOM =  300.1 K
   TBGASUB = 0.000702 eV/K
   TBGBSUB =   1108 K
   KT1 =      0 V
   KT1L =      0 Vm
   IIT =   -0.5 
   TII =      0 
   TGIDL = -0.0003 K^-1
   IGT =    2.5 
   TCJ =      0 K^-1
   TCJSW =      0 K^-1
   TCJSWG =      0 K^-1
   TPB =      0 K^-1
   TPBSW =      0 K^-1
   TPBSWG =      0 K^-1
   XTIS =      3 
   XTID =      3 
   XTSS =   0.02 
   XTSD =   0.02 
   XTSSWS =   0.02 
   XTSSWD =   0.02 
   XTSSWGS =   0.02 
   XTSSWGD =   0.02 
   TNJTS =      0 
   TNJTSD =      0 
   TNJTSSW =      0 
   TNJTSSWD =      0 
   TNJTSSWG =      0 
   TNJTSSWGD =      0 
   RTH0 =   0.01 ohm
   CTH0 =  1e-05 F
   WTH0 =      0 m
   LNBODY =      0 
   NNBODY =      0 
   PNBODY =      0 
   LPHIG =      0 
   NPHIG =      0 
   PPHIG =      0 
   LNGATE =      0 
   NNGATE =      0 
   PNGATE =      0 
   LCIT =      0 
   NCIT =      0 
   PCIT =      0 
   LCDSC =      0 
   NCDSC =      0 
   PCDSC =      0 
   LCDSCD =      0 
   NCDSCD =      0 
   PCDSCD =      0 
   LCDSCDR =      0 
   NCDSCDR =      0 
   PCDSCDR =      0 
   LDVT0 =      0 
   NDVT0 =      0 
   PDVT0 =      0 
   LDVT1 =      0 
   NDVT1 =      0 
   PDVT1 =      0 
   LPHIN =      0 
   NPHIN =      0 
   PPHIN =      0 
   LETA0 =      0 
   NETA0 =      0 
   PETA0 =      0 
   LETA0R =      0 
   NETA0R =      0 
   PETA0R =      0 
   LDSUB =      0 
   NDSUB =      0 
   PDSUB =      0 
   LK1RSCE =      0 
   NK1RSCE =      0 
   PK1RSCE =      0 
   LLPE0 =      0 
   NLPE0 =      0 
   PLPE0 =      0 
   LQMFACTOR =      0 
   NQMFACTOR =      0 
   PQMFACTOR =      0 
   LQMTCENIV =      0 
   NQMTCENIV =      0 
   PQMTCENIV =      0 
   LQMTCENCV =      0 
   NQMTCENCV =      0 
   PQMTCENCV =      0 
   LVSAT =      0 
   NVSAT =      0 
   PVSAT =      0 
   LKSATIV =      0 
   NKSATIV =      0 
   PKSATIV =      0 
   LMEXP =      0 
   NMEXP =      0 
   PMEXP =      0 
   LPTWG =      0 
   NPTWG =      0 
   PPTWG =      0 
   LTHETASAT =      0 
   NTHETASAT =      0 
   PTHETASAT =      0 
   LU0 =      0 
   NU0 =      0 
   PU0 =      0 
   LUP =      0 
   NUP =      0 
   PUP =      0 
   LUA =      0 
   NUA =      0 
   PUA =      0 
   LEU =      0 
   NEU =      0 
   PEU =      0 
   LUD =      0 
   NUD =      0 
   PUD =      0 
   LUCS =      0 
   NUCS =      0 
   PUCS =      0 
   LPCLM =      0 
   NPCLM =      0 
   PPCLM =      0 
   LPCLMCV =      0 
   NPCLMCV =      0 
   PPCLMCV =      0 
   LRDSW =      0 
   NRDSW =      0 
   PRDSW =      0 
   LRSW =      0 
   NRSW =      0 
   PRSW =      0 
   LRDW =      0 
   NRDW =      0 
   PRDW =      0 
   LPRWG =      0 
   NPRWG =      0 
   PPRWG =      0 
   LWR =      0 
   NWR =      0 
   PWR =      0 
   LPDIBL1 =      0 
   NPDIBL1 =      0 
   PPDIBL1 =      0 
   LPDIBL2 =      0 
   NPDIBL2 =      0 
   PPDIBL2 =      0 
   LDROUT =      0 
   NDROUT =      0 
   PDROUT =      0 
   LPVAG =      0 
   NPVAG =      0 
   PPVAG =      0 
   LAIGBINV =      0 
   NAIGBINV =      0 
   PAIGBINV =      0 
   LBIGBINV =      0 
   NBIGBINV =      0 
   PBIGBINV =      0 
   LCIGBINV =      0 
   NCIGBINV =      0 
   PCIGBINV =      0 
   LEIGBINV =      0 
   NEIGBINV =      0 
   PEIGBINV =      0 
   LNIGBINV =      0 
   NNIGBINV =      0 
   PNIGBINV =      0 
   LAIGC =      0 
   NAIGC =      0 
   PAIGC =      0 
   LBIGC =      0 
   NBIGC =      0 
   PBIGC =      0 
   LCIGC =      0 
   NCIGC =      0 
   PCIGC =      0 
   LNIGC =      0 
   NNIGC =      0 
   PNIGC =      0 
   LAIGS =      0 
   NAIGS =      0 
   PAIGS =      0 
   LBIGS =      0 
   NBIGS =      0 
   PBIGS =      0 
   LCIGS =      0 
   NCIGS =      0 
   PCIGS =      0 
   LAIGD =      0 
   NAIGD =      0 
   PAIGD =      0 
   LBIGD =      0 
   NBIGD =      0 
   PBIGD =      0 
   LCIGD =      0 
   NCIGD =      0 
   PCIGD =      0 
   LPOXEDGE =      0 
   NPOXEDGE =      0 
   PPOXEDGE =      0 
   LAGIDL =      0 
   NAGIDL =      0 
   PAGIDL =      0 
   LBGIDL =      0 
   NBGIDL =      0 
   PBGIDL =      0 
   LEGIDL =      0 
   NEGIDL =      0 
   PEGIDL =      0 
   LAGISL =      0 
   NAGISL =      0 
   PAGISL =      0 
   LBGISL =      0 
   NBGISL =      0 
   PBGISL =      0 
   LEGISL =      0 
   NEGISL =      0 
   PEGISL =      0 
   LALPHA0 =      0 
   NALPHA0 =      0 
   PALPHA0 =      0 
   LALPHA1 =      0 
   NALPHA1 =      0 
   PALPHA1 =      0 
   LBETA0 =      0 
   NBETA0 =      0 
   PBETA0 =      0 
   LALPHAII =      0 
   NALPHAII =      0 
   PALPHAII =      0 
   LBETAII0 =      0 
   NBETAII0 =      0 
   PBETAII0 =      0 
   LBETAII1 =      0 
   NBETAII1 =      0 
   PBETAII1 =      0 
   LBETAII2 =      0 
   NBETAII2 =      0 
   PBETAII2 =      0 
   LESATII =      0 
   NESATII =      0 
   PESATII =      0 
   LLII =      0 
   NLII =      0 
   PLII =      0 
   LSII0 =      0 
   NSII0 =      0 
   PSII0 =      0 
   LSII1 =      0 
   NSII1 =      0 
   PSII1 =      0 
   LSII2 =      0 
   NSII2 =      0 
   PSII2 =      0 
   LSIID =      0 
   NSIID =      0 
   PSIID =      0 
   LCFS =      0 
   NCFS =      0 
   PCFS =      0 
   LCFD =      0 
   NCFD =      0 
   PCFD =      0 
   LCOVS =      0 
   NCOVS =      0 
   PCOVS =      0 
   LCOVD =      0 
   NCOVD =      0 
   PCOVD =      0 
   LCGSL =      0 
   NCGSL =      0 
   PCGSL =      0 
   LCGDL =      0 
   NCGDL =      0 
   PCGDL =      0 
   LCKAPPAS =      0 
   NCKAPPAS =      0 
   PCKAPPAS =      0 
   LCKAPPAD =      0 
   NCKAPPAD =      0 
   PCKAPPAD =      0 
   LCGBL =      0 
   NCGBL =      0 
   PCGBL =      0 
   LCKAPPAB =      0 
   NCKAPPAB =      0 
   PCKAPPAB =      0 
   LNTGEN =      0 
   NNTGEN =      0 
   PNTGEN =      0 
   LAIGEN =      0 
   NAIGEN =      0 
   PAIGEN =      0 
   LBIGEN =      0 
   NBIGEN =      0 
   PBIGEN =      0 
   LXRCRG1 =      0 
   NXRCRG1 =      0 
   PXRCRG1 =      0 
   LXRCRG2 =      0 
   NXRCRG2 =      0 
   PXRCRG2 =      0 
   LINTNOI =      0 
   NINTNOI =      0 
   PINTNOI =      0 
   LUTE =      0 
   NUTE =      0 
   PUTE =      0 
   LUTL =      0 
   NUTL =      0 
   PUTL =      0 
   LUA1 =      0 
   NUA1 =      0 
   PUA1 =      0 
   LUD1 =      0 
   NUD1 =      0 
   PUD1 =      0 
   LUCSTE =      0 
   NUCSTE =      0 
   PUCSTE =      0 
   LPTWGT =      0 
   NPTWGT =      0 
   PPTWGT =      0 
   LAT =      0 
   NAT =      0 
   PAT =      0 
   LSTTHETASAT =      0 
   NSTTHETASAT =      0 
   PSTTHETASAT =      0 
   LPRT =      0 
   NPRT =      0 
   PPRT =      0 
   LIIT =      0 
   NIIT =      0 
   PIIT =      0 
   LTII =      0 
   NTII =      0 
   PTII =      0 
   LTGIDL =      0 
   NTGIDL =      0 
   PTGIDL =      0 
   LIGT =      0 
   NIGT =      0 
   PIGT =      0 
   L = 1.4e-08 m
   D =  4e-08 m
   TFIN =  8e-09 m
   FPITCH = 2.8e-08 m
   NF = 1 
   NFIN = 1 
   NGCON = 1 
   ASEO =      0 m^2
   ADEO =      0 m^2
   PSEO =      0 m
   PDEO =      0 m
   ASEJ =      0 m^2
   ADEJ =      0 m^2
   PSEJ =      0 m
   PDEJ =      0 m
   CGSP =      0 F
   CGDP =      0 F
   CDSP =      0 F
   NRS =      0 
   NRD =      0 
   LRSD = 1.4e-08 m
   XL =      0 m
   DELVTRAND =      0 
   U0MULT =      1 
   IDS0MULT =      1 
   Lmin =  1e-08 m
   Lmax =  3e-08 m
   NFINmin = 0 
   NFINmax = 1 
   LVSAT1 =      0 
   NVSAT1 =      0 
   PVSAT1 =      0 
   LETAMOB =      0 
   NETAMOB =      0 
   PETAMOB =      0 
   LPCLMG =      0 
   NPCLMG =      0 
   PPCLMG =      0 
   LVASAT =      0 
   NVASAT =      0 
   PVASAT =      0 
   LAIGBACC =      0 
   NAIGBACC =      0 
   PAIGBACC =      0 
   LBIGBACC =      0 
   NBIGBACC =      0 
   PBIGBACC =      0 
   LCIGBACC =      0 
   NCIGBACC =      0 
   PCIGBACC =      0 
   LNIGBACC =      0 
   NNIGBACC =      0 
   PNIGBACC =      0 
 Model Name: nfet 
 BSIM-MG BULK Model(Level72)
   VERSION = 105.03  
   DEVTYPE = 1 
   BULKMOD = 1  
   COREMOD = 0 
   GEOMOD = 1 
   RDSMOD = 1 
   IGCMOD = 1 
   IGBMOD = 1 
   GIDLMOD = 0 
   IIMOD = 0 
   NQSMOD = 0 
   SHMOD = 0 
   RGATEMOD = 0 
   RGEOMOD = 1 
   CGEOMOD = 2 
   CAPMOD = 0 
   LINT =  6e-10 m
   LL =      0 m^(LLN+1)
   LLN =      1 
   DLC =      0 m
   DLBIN =      0 
   LLC =      0 m^(LLN+1)
   EOT = 6.8e-10 m
   TOXP = 1.2e-09 m
   EOTBOX = 1.4e-07 m
   HFIN = 2.1e-08 m
   FECH =      1 
   DELTAW =      0 m
   FECHCV =      1 
   DELTAWCV =      0 m
   NBODY = 2.5e+22 m^-3
   NSD =  3e+26 m^-3
   PHIG =  4.421 eV
   EPSROX =    3.9 
   EPSRSUB =   11.9 
   EASUB =   4.05 eV
   NI0SUB = 1.1e+16 m^-3
   BG0SUB =   1.12 eV
   NC0SUB = 2.86e+25 m^-3
   NGATE =      0 m^-3
   CIT = 1.3e-05 F/m^2
   CDSC =  0.032 F/m^2
   CDSCD =  0.007 F/m^2
   CDSCDR =  0.007 
   DVT0 =   0.01 
   DVT1 =   0.69 
   PHIN =   0.05 V
   ETA0 = 0.6778 
   ETA0R = 0.6778 
   DSUB =    0.9 
   K1RSCE =      0 V^1/2
   LPE0 =  5e-09 m
   DVTSHIFT =      0 
   QMFACTOR =      0 
   QMTCENIV =      0 
   QMTCENCV =      0 
   AQMTCEN =      0 
   BQMTCEN = 1.2e-08 
   ETAQM =   0.54 
   QM0 = 0.001143 
   PQM =   0.66 
   QM0ACC =  0.001 
   PQMACC =   0.66 
   VSAT = 1.32e+05 
   AVSAT =      0 
   BVSAT =  1e-07 
   VSAT1 = 1.32e+05 
   AVSAT1 =      0 
   BVSAT1 =  1e-07 
   DELTAVSAT =      1 
   KSATIV =    0.8 
   MEXP =      3 
   AMEXP =      0 
   BMEXP =      1 
   PTWG =      0 
   APTWG =      0 
   BPTWG =  1e-07 
   AT = -0.00156 
   TMEXP =      0 
   PTWGT =  0.004 
   U0 = 0.0568 
   ETAMOB =      2 
   UP =      0 
   LPA =      1 
   UA =    0.3 
   AUA =      0 
   BUA =  1e-07 
   EU =    1.8 
   AEU =      0 
   BEU =  1e-07 
   UD =      0 
   AUD =      0 
   BUD =  5e-08 
   UCS =      0 
   UTE =      0 
   UTL = -0.0015 
   UA1 = 0.001032 
   UD1 =      0 
   UCSTE = -0.00478 
   RDSWMIN =      0 
   RDSW =    100 
   ARDSW =      0 
   BRDSW =  1e-07 
   RSWMIN =      0 
   RSW =      0 
   ARSW =      0 
   BRSW =  1e-07 
   RDWMIN =      0 
   RDW =      0 
   ARDW =      0 
   BRDW =  1e-07 
   PRWG =      0 
   WR =      1 
   PRT =  0.001 
   PDIBL1 =    1.3 
   PDIBL2 = 0.0002 
   DROUT =   1.06 
   PVAG =      1 
   PCLM =    0.2 
   APCLM =      0 
   BPCLM =  1e-07 
   PCLMG =      0 
   VASAT =    0.6 
   PCLMCV =  0.013 
   PCLMGCV =      0 
   VASATCV =    0.2 
   RGEXT =      0 ohm
   RGFIN =  0.001 ohm
   RSHS =      0 ohm
   RSHD =      0 ohm
   HEPI = 8.5e-09 m
   TSILI =  7e-09 m
   RHOC =  6e-13 ohm/m^2
   RHORSD =      1 ohm/m
   RHOEXT =      1 ohm/m
   CRATIO =    0.5 
   DELTAPRSD =      0 m
   SDTERM = 0 
   LSP = 2.8e-09 m
   LDG =  2e-09 m
   EPSRSP =    3.9 
   TGATE =  8e-09 m
   TMASK =      0 m
   ASILIEND =      0 m^2
   ARSDEND =      0 m^2
   PRSDEND =      0 m
   NSDE =  6e+25 m^-3
   RGEOA =      1 
   RGEOB =      0 m^-1
   RGEOC =      0 m^-1
   RGEOD =      0 m^-1
   RGEOE =      0 m^-1
   CGEOA =      1 
   CGEOB =      0 m^-1
   CGEOC =      0 m^-1
   CGEOD =      0 m^-1
   CGEOE =      1 
   AIGBINV = 0.0111 (Fs^2/g)^0.5m^-1
   BIGBINV =   0.03 (Fs^2/g)^0.5m^-1
   CIGBINV =  0.006 V^-1
   EIGBINV =    1.1 V
   NIGBINV =    1.2 
   AIGBACC = 0.0149 
   BIGBACC = 0.000949 
   CIGBACC =  0.075 
   NIGBACC =      3 
   AIGC = 0.0136 (Fs^2/g)^0.5m^-1
   BIGC = 0.00171 (Fs^2/g)^0.5m^-1V^-1
   CIGC =  0.075 V^-1
   NIGC =      1 
   DLCIGS =      0 m
   AIGS = 0.0136 (Fs^2/g)^0.5m^-1
   BIGS = 0.00171 (Fs^2/g)^0.5m^-1V^-1
   CIGS =  0.075 V^-1
   DLCIGD =      0 m
   AIGD = 0.0136 (Fs^2/g)^0.5m^-1
   BIGD = 0.00171 (Fs^2/g)^0.5m^-1V^-1
   CIGD =  0.075 V^-1
   POXEDGE =      1 
   AGIDL = 5.729e-12 ohm^-1
   BGIDL =  3e+08 V/m
   EGIDL =    0.1 V
   AGISL = 5.729e-12 ohm^-1
   BGISL =  3e+08 V/m
   EGISL =    0.1 V
   ALPHA0 =      0 mV^-1
   ALPHA1 =      0 V^-1
   BETA0 =     30 V^-1
   ALPHAII =      0 
   BETAII0 =      0 V^-1
   BETAII1 =      0 
   BETAII2 =    0.1 V
   ESATII =  1e+07 V/m
   LII =  5e-10 V/m
   SII0 =    0.5 V^-1
   SII1 =    0.1 
   SII2 =      0 V
   SIID =      0 V
   EOTACC = 6.8e-10 m
   DELVFBACC =      0 V
   CFS = 2.56e-11 F/m
   CFD = 2.65e-11 F/m
   COVS = 2.5e-11 F/m
   COVD = 2.5e-11 F/m
   CGSO =      0 F/m
   CGDO =      0 F/m
   CGSL =      0 F/m
   CGDL =      0 F/m
   CKAPPAS =    0.6 V
   CKAPPAD =    0.6 V
   CGBO =      0 F/m
   CGBL =      0 F/m
   CKAPPAB =    0.6 V
   CSDESW =      0 F/m
   CJS = 0.0005 F/m^2
   CJD = 0.0005 F/m^2
   CJSWS =  5e-10 F/m
   CJSWD =  5e-10 F/m
   CJSWGS =      0 F/m
   CJSWGD =      0 F/m
   PBS =      1 V
   PBD =      1 V
   PBSWS =      1 V
   PBSWD =      1 V
   PBSWGS =      1 V
   PBSWGD =      1 V
   MJS, =    0.5 
   MJD =    0.5 
   MJSWS =   0.33 
   MJSWD =   0.33 
   MJSWGS =   0.33 
   MJSWGD =   0.33 
   SJS =      0 
   SJD =      0 
   SJSWS =      0 
   SJSWD =      0 
   SJSWGS =      0 
   SJSWGD =      0 
   MJS2 =  0.125 
   MJD2 =  0.125 
   MJSWS2 =   0.33 
   MJSWD2 =   0.33 
   MJSWGS2 =   0.33 
   MJSWGD2 =   0.33 
   JSS = 0.0001 A/m^2
   JSD = 0.0001 A/m^2
   JSWS =      0 A/m
   JSWD =      0 A/m
   JSWGS =      0 A/m
   JSWGD =      0 A/m
   NJS =      1 
   NJD =      1 
   IJTHSFWD =    0.1 A
   IJTHDFWD =    0.1 A
   IJTHSREV =    0.1 A
   IJTHDREV =    0.1 A
   BVS =     10 V
   BVD =     10 V
   XJBVS =      1 
   XJBVD =      1 
   JTSS =      0 A/m^2
   JTSD =      0 A/m^2
   JTSSWS =      0 A/m
   JTSSWD =      0 A/m
   JTSSWGS =      0 A/m
   JTSSWGD =      0 A/m
   JTWEFF =      0 m
   NJTS =     20 
   NJTSD =     20 
   NJTSSW =     20 
   NJTSSWD =     20 
   NJTSSWG =     20 
   NJTSSWGD =     20 
   VTSS =     10 V
   VTSD =     10 V
   VTSSWS =     10 V
   VTSSWD =     10 V
   VTSSWGS =     10 V
   VTSSWGD =     10 V
   LINTIGEN =      0 m
   NTGEN =      1 
   AIGEN =      0 m^-3V^-1
   BIGEN =      0 m^-3V^-3
   XRCRG1 =     12 
   XRCRG2 =      1 
   NSEG = 5 
   EF =      1 
   EM = 4.1e+07 V/m
   NOIA = 6.25e+39 eV^-1s^1-EFm^-3
   NOIB = 3.125e+24 eV^-1s^1-EFm^-1
   NOIC = 8.75e+07 eV^-1s^1-EFm
   NTNOI =      1 
   TNOM =  300.1 K
   TBGASUB = 0.000702 eV/K
   TBGBSUB =   1108 K
   KT1 =      0 V
   KT1L =      0 Vm
   IIT =   -0.5 
   TII =      0 
   TGIDL = -0.0003 K^-1
   IGT =    2.5 
   TCJ =      0 K^-1
   TCJSW =      0 K^-1
   TCJSWG =      0 K^-1
   TPB =      0 K^-1
   TPBSW =      0 K^-1
   TPBSWG =      0 K^-1
   XTIS =      3 
   XTID =      3 
   XTSS =   0.02 
   XTSD =   0.02 
   XTSSWS =   0.02 
   XTSSWD =   0.02 
   XTSSWGS =   0.02 
   XTSSWGD =   0.02 
   TNJTS =      0 
   TNJTSD =      0 
   TNJTSSW =      0 
   TNJTSSWD =      0 
   TNJTSSWG =      0 
   TNJTSSWGD =      0 
   RTH0 =   0.01 ohm
   CTH0 =  1e-05 F
   WTH0 =      0 m
   LNBODY =      0 
   NNBODY =      0 
   PNBODY =      0 
   LPHIG =      0 
   NPHIG =      0 
   PPHIG =      0 
   LNGATE =      0 
   NNGATE =      0 
   PNGATE =      0 
   LCIT =      0 
   NCIT =      0 
   PCIT =      0 
   LCDSC =      0 
   NCDSC =      0 
   PCDSC =      0 
   LCDSCD =      0 
   NCDSCD =      0 
   PCDSCD =      0 
   LCDSCDR =      0 
   NCDSCDR =      0 
   PCDSCDR =      0 
   LDVT0 =      0 
   NDVT0 =      0 
   PDVT0 =      0 
   LDVT1 =      0 
   NDVT1 =      0 
   PDVT1 =      0 
   LPHIN =      0 
   NPHIN =      0 
   PPHIN =      0 
   LETA0 =      0 
   NETA0 =      0 
   PETA0 =      0 
   LETA0R =      0 
   NETA0R =      0 
   PETA0R =      0 
   LDSUB =      0 
   NDSUB =      0 
   PDSUB =      0 
   LK1RSCE =      0 
   NK1RSCE =      0 
   PK1RSCE =      0 
   LLPE0 =      0 
   NLPE0 =      0 
   PLPE0 =      0 
   LQMFACTOR =      0 
   NQMFACTOR =      0 
   PQMFACTOR =      0 
   LQMTCENIV =      0 
   NQMTCENIV =      0 
   PQMTCENIV =      0 
   LQMTCENCV =      0 
   NQMTCENCV =      0 
   PQMTCENCV =      0 
   LVSAT =      0 
   NVSAT =      0 
   PVSAT =      0 
   LKSATIV =      0 
   NKSATIV =      0 
   PKSATIV =      0 
   LMEXP =      0 
   NMEXP =      0 
   PMEXP =      0 
   LPTWG =      0 
   NPTWG =      0 
   PPTWG =      0 
   LTHETASAT =      0 
   NTHETASAT =      0 
   PTHETASAT =      0 
   LU0 =      0 
   NU0 =      0 
   PU0 =      0 
   LUP =      0 
   NUP =      0 
   PUP =      0 
   LUA =      0 
   NUA =      0 
   PUA =      0 
   LEU =      0 
   NEU =      0 
   PEU =      0 
   LUD =      0 
   NUD =      0 
   PUD =      0 
   LUCS =      0 
   NUCS =      0 
   PUCS =      0 
   LPCLM =      0 
   NPCLM =      0 
   PPCLM =      0 
   LPCLMCV =      0 
   NPCLMCV =      0 
   PPCLMCV =      0 
   LRDSW =      0 
   NRDSW =      0 
   PRDSW =      0 
   LRSW =      0 
   NRSW =      0 
   PRSW =      0 
   LRDW =      0 
   NRDW =      0 
   PRDW =      0 
   LPRWG =      0 
   NPRWG =      0 
   PPRWG =      0 
   LWR =      0 
   NWR =      0 
   PWR =      0 
   LPDIBL1 =      0 
   NPDIBL1 =      0 
   PPDIBL1 =      0 
   LPDIBL2 =      0 
   NPDIBL2 =      0 
   PPDIBL2 =      0 
   LDROUT =      0 
   NDROUT =      0 
   PDROUT =      0 
   LPVAG =      0 
   NPVAG =      0 
   PPVAG =      0 
   LAIGBINV =      0 
   NAIGBINV =      0 
   PAIGBINV =      0 
   LBIGBINV =      0 
   NBIGBINV =      0 
   PBIGBINV =      0 
   LCIGBINV =      0 
   NCIGBINV =      0 
   PCIGBINV =      0 
   LEIGBINV =      0 
   NEIGBINV =      0 
   PEIGBINV =      0 
   LNIGBINV =      0 
   NNIGBINV =      0 
   PNIGBINV =      0 
   LAIGC =      0 
   NAIGC =      0 
   PAIGC =      0 
   LBIGC =      0 
   NBIGC =      0 
   PBIGC =      0 
   LCIGC =      0 
   NCIGC =      0 
   PCIGC =      0 
   LNIGC =      0 
   NNIGC =      0 
   PNIGC =      0 
   LAIGS =      0 
   NAIGS =      0 
   PAIGS =      0 
   LBIGS =      0 
   NBIGS =      0 
   PBIGS =      0 
   LCIGS =      0 
   NCIGS =      0 
   PCIGS =      0 
   LAIGD =      0 
   NAIGD =      0 
   PAIGD =      0 
   LBIGD =      0 
   NBIGD =      0 
   PBIGD =      0 
   LCIGD =      0 
   NCIGD =      0 
   PCIGD =      0 
   LPOXEDGE =      0 
   NPOXEDGE =      0 
   PPOXEDGE =      0 
   LAGIDL =      0 
   NAGIDL =      0 
   PAGIDL =      0 
   LBGIDL =      0 
   NBGIDL =      0 
   PBGIDL =      0 
   LEGIDL =      0 
   NEGIDL =      0 
   PEGIDL =      0 
   LAGISL =      0 
   NAGISL =      0 
   PAGISL =      0 
   LBGISL =      0 
   NBGISL =      0 
   PBGISL =      0 
   LEGISL =      0 
   NEGISL =      0 
   PEGISL =      0 
   LALPHA0 =      0 
   NALPHA0 =      0 
   PALPHA0 =      0 
   LALPHA1 =      0 
   NALPHA1 =      0 
   PALPHA1 =      0 
   LBETA0 =      0 
   NBETA0 =      0 
   PBETA0 =      0 
   LALPHAII =      0 
   NALPHAII =      0 
   PALPHAII =      0 
   LBETAII0 =      0 
   NBETAII0 =      0 
   PBETAII0 =      0 
   LBETAII1 =      0 
   NBETAII1 =      0 
   PBETAII1 =      0 
   LBETAII2 =      0 
   NBETAII2 =      0 
   PBETAII2 =      0 
   LESATII =      0 
   NESATII =      0 
   PESATII =      0 
   LLII =      0 
   NLII =      0 
   PLII =      0 
   LSII0 =      0 
   NSII0 =      0 
   PSII0 =      0 
   LSII1 =      0 
   NSII1 =      0 
   PSII1 =      0 
   LSII2 =      0 
   NSII2 =      0 
   PSII2 =      0 
   LSIID =      0 
   NSIID =      0 
   PSIID =      0 
   LCFS =      0 
   NCFS =      0 
   PCFS =      0 
   LCFD =      0 
   NCFD =      0 
   PCFD =      0 
   LCOVS =      0 
   NCOVS =      0 
   PCOVS =      0 
   LCOVD =      0 
   NCOVD =      0 
   PCOVD =      0 
   LCGSL =      0 
   NCGSL =      0 
   PCGSL =      0 
   LCGDL =      0 
   NCGDL =      0 
   PCGDL =      0 
   LCKAPPAS =      0 
   NCKAPPAS =      0 
   PCKAPPAS =      0 
   LCKAPPAD =      0 
   NCKAPPAD =      0 
   PCKAPPAD =      0 
   LCGBL =      0 
   NCGBL =      0 
   PCGBL =      0 
   LCKAPPAB =      0 
   NCKAPPAB =      0 
   PCKAPPAB =      0 
   LNTGEN =      0 
   NNTGEN =      0 
   PNTGEN =      0 
   LAIGEN =      0 
   NAIGEN =      0 
   PAIGEN =      0 
   LBIGEN =      0 
   NBIGEN =      0 
   PBIGEN =      0 
   LXRCRG1 =      0 
   NXRCRG1 =      0 
   PXRCRG1 =      0 
   LXRCRG2 =      0 
   NXRCRG2 =      0 
   PXRCRG2 =      0 
   LINTNOI =      0 
   NINTNOI =      0 
   PINTNOI =      0 
   LUTE =      0 
   NUTE =      0 
   PUTE =      0 
   LUTL =      0 
   NUTL =      0 
   PUTL =      0 
   LUA1 =      0 
   NUA1 =      0 
   PUA1 =      0 
   LUD1 =      0 
   NUD1 =      0 
   PUD1 =      0 
   LUCSTE =      0 
   NUCSTE =      0 
   PUCSTE =      0 
   LPTWGT =      0 
   NPTWGT =      0 
   PPTWGT =      0 
   LAT =      0 
   NAT =      0 
   PAT =      0 
   LSTTHETASAT =      0 
   NSTTHETASAT =      0 
   PSTTHETASAT =      0 
   LPRT =      0 
   NPRT =      0 
   PPRT =      0 
   LIIT =      0 
   NIIT =      0 
   PIIT =      0 
   LTII =      0 
   NTII =      0 
   PTII =      0 
   LTGIDL =      0 
   NTGIDL =      0 
   PTGIDL =      0 
   LIGT =      0 
   NIGT =      0 
   PIGT =      0 
   L = 1.4e-08 m
   D =  4e-08 m
   TFIN =  8e-09 m
   FPITCH = 2.8e-08 m
   NF = 1 
   NFIN = 1 
   NGCON = 1 
   ASEO =      0 m^2
   ADEO =      0 m^2
   PSEO =      0 m
   PDEO =      0 m
   ASEJ =      0 m^2
   ADEJ =      0 m^2
   PSEJ =      0 m
   PDEJ =      0 m
   CGSP =      0 F
   CGDP =      0 F
   CDSP =      0 F
   NRS =      0 
   NRD =      0 
   LRSD = 1.4e-08 m
   XL =      0 m
   DELVTRAND =      0 
   U0MULT =      1 
   IDS0MULT =      1 
   Lmin =  1e-08 m
   Lmax =  3e-08 m
   NFINmin = 0 
   NFINmax = 1 
   LVSAT1 =      0 
   NVSAT1 =      0 
   PVSAT1 =      0 
   LETAMOB =      0 
   NETAMOB =      0 
   PETAMOB =      0 
   LPCLMG =      0 
   NPCLMG =      0 
   PPCLMG =      0 
   LVASAT =      0 
   NVASAT =      0 
   PVASAT =      0 
   LAIGBACC =      0 
   NAIGBACC =      0 
   PAIGBACC =      0 
   LBIGBACC =      0 
   NBIGBACC =      0 
   PBIGBACC =      0 
   LCIGBACC =      0 
   NCIGBACC =      0 
   PCIGBACC =      0 
   LNIGBACC =      0 
   NNIGBACC =      0 
   PNIGBACC =      0 
  **info** (ptm10hp.sp:15) DC voltage reset to initial transient source value              in source        0:vin_0               new dc=  0.7500D+00
  
 **warning**  No DC path to ground from node        0:outin_40         defined in subckt 0               ; Connected by HSPICE with gdcpath


      
 **info** set option symb=1 internally to help for convergence.
 *****************************************************************
 ******  option summary
 ******
 runlvl  = 3         bypass  = 2         
  Opening plot unit= 15
 file=ptm10hp.pa0                                                              

1****** HSPICE -- F-2011.09-SP2 64-BIT (Feb 27 2012) linux ******               
 ******  
 $this uut was automatically generated by:

  ******  operating point information tnom=  25.000 temp=  25.000 *****
 ***** operating point status is voltage   simulation time is     0.     
     node    =voltage       node    =voltage       node    =voltage

 + 0:inb_0   = 750.0000m  0:inb_1   = 750.0000m  0:inb_2   = 750.0000m
 + 0:outb_00 = 746.4027m  0:outb_10 = 746.4027m  0:outb_20 = 746.4027m
 + 0:outin_00=   2.8356m  0:outin_01=   2.8356m  0:outin_02=   2.8356m
 + 0:outin_10= 747.6267m  0:outin_11= 747.6267m  0:outin_12= 747.6267m
 + 0:outin_20=   2.9753m  0:outin_21=   2.9753m  0:outin_22=   2.9753m
 + 0:outin_30= 747.6199m  0:outin_31= 747.6199m  0:outin_32= 747.6199m
 + 0:outin_40=  22.9185m  0:outin_41=  22.9185m  0:outin_42=  22.9185m
 + 0:vdd     = 750.0000m

 ******  
 $this uut was automatically generated by:

  ******  transient analysis tnom=  25.000 temp=  25.000 *****
 trf_delay_001=   2.1097p  targ=  30.5838p   trig=  28.4740p
 tfr_delay_001=   2.3569p  targ=   1.0800n   trig=   1.0777n
 trf_delay_002=   2.0673p  targ=   2.0306n   trig=   2.0286n
 tfr_delay_002=   2.0809p  targ=   3.0801n   trig=   3.0780n
 trf_delay_003=   1.9170p  targ=   4.0305n   trig=   4.0286n
 tfr_delay_003=   2.3316p  targ=   5.0801n   trig=   5.0778n
 trf_delay_004=   2.1014p  targ=   6.0307n   trig=   6.0286n
 tfr_delay_004=   1.0878p  targ=   7.0793n   trig=   7.0782n
 trf_delay_101=   1.6985p  targ=   1.0817n   trig=   1.0800n
 tfr_delay_101=   1.6158p  targ=  32.1996p   trig=  30.5838p
 trf_delay_102=   1.6384p  targ=   3.0818n   trig=   3.0801n
 tfr_delay_102=   1.4081p  targ=   2.0320n   trig=   2.0306n
 trf_delay_103=   1.2060p  targ=   5.0814n   trig=   5.0801n
 tfr_delay_103=   1.5959p  targ=   4.0321n   trig=   4.0305n
 trf_delay_104=   1.4279p  targ=   7.0807n   trig=   7.0793n
 tfr_delay_104=   1.3545p  targ=   6.0321n   trig=   6.0307n
 trf_delay_201=   1.0742p  targ=  33.2738p   trig=  32.1996p
 tfr_delay_201=   1.1250p  targ=   1.0828n   trig=   1.0817n
 trf_delay_202= 847.4898f  targ=   2.0329n   trig=   2.0320n
 tfr_delay_202= 500.6237a  targ=   3.0818n   trig=   3.0818n
 trf_delay_203= 999.8189f  targ=   4.0331n   trig=   4.0321n
 tfr_delay_203= 937.6372f  targ=   5.0823n   trig=   5.0814n
 trf_delay_204= 631.6079f  targ=   6.0327n   trig=   6.0321n
 tfr_delay_204=   1.5831p  targ=   7.0823n   trig=   7.0807n
 trf_delay_011=   2.1097p  targ=  30.5838p   trig=  28.4740p
 tfr_delay_011=   1.4107p  targ=   2.0792n   trig=   2.0778n
 trf_delay_012=   1.9170p  targ=   4.0305n   trig=   4.0286n
 tfr_delay_012=   2.3579p  targ=   6.0800n   trig=   6.0777n
 trf_delay_111= 730.9566f  targ=   2.0799n   trig=   2.0792n
 tfr_delay_111=   1.6158p  targ=  32.1996p   trig=  30.5838p
 trf_delay_112=   1.7947p  targ=   6.0818n   trig=   6.0800n
 tfr_delay_112=   1.5959p  targ=   4.0321n   trig=   4.0305n
 trf_delay_211=   1.0742p  targ=  33.2738p   trig=  32.1996p
 tfr_delay_211=-121.1288f  targ=   2.0798n   trig=   2.0799n
 trf_delay_212= 999.8187f  targ=   4.0331n   trig=   4.0321n
 tfr_delay_212= 574.8853f  targ=   6.0824n   trig=   6.0818n
 trf_delay_021=   2.1097p  targ=  30.5838p   trig=  28.4740p
 tfr_delay_021=   2.3230p  targ=   4.0799n   trig=   4.0775n
 trf_delay_121=   1.7482p  targ=   4.0816n   trig=   4.0799n
 tfr_delay_121=   1.6158p  targ=  32.1996p   trig=  30.5838p
 trf_delay_221=   1.0742p  targ=  33.2738p   trig=  32.1996p
 tfr_delay_221= 499.4989f  targ=   4.0821n   trig=   4.0816n
x

        time    voltage      voltage    
                 outin_00     outin_10  
    0.            2.8356m    747.6267m  
   10.00000p     25.0892m    746.9897m  
   20.00000p     77.4524m    741.8133m  
   30.00000p    447.7386m    441.1487m  
   40.00000p    715.7873m      6.9163m  
   50.00000p    744.2857m      3.7417m  
   60.00000p    747.7412m      2.9857m  
   70.00000p    747.7801m      2.9549m  
   80.00000p    747.7635m      2.9677m  
   90.00000p    747.7484m      2.9794m  
  100.00000p    747.7548m      2.9745m  
  110.00000p    747.7611m      2.9697m  
  120.00000p    747.7675m      2.9649m  
  130.00000p    747.7739m      2.9600m  
  140.00000p    747.7803m      2.9552m  
  150.00000p    747.7775m      2.9573m  
  160.00000p    747.7747m      2.9594m  
  170.00000p    747.7719m      2.9615m  
  180.00000p    747.7691m      2.9636m  
  190.00000p    747.7663m      2.9657m  
  200.00000p    747.7635m      2.9678m  
  210.00000p    747.7607m      2.9700m  
  220.00000p    747.7579m      2.9721m  
  230.00000p    747.7551m      2.9742m  
  240.00000p    747.7523m      2.9763m  
  250.00000p    747.7495m      2.9784m  
  260.00000p    747.7506m      2.9775m  
  270.00000p    747.7520m      2.9765m  
  280.00000p    747.7533m      2.9755m  
  290.00000p    747.7547m      2.9745m  
  300.00000p    747.7560m      2.9735m  
  310.00000p    747.7573m      2.9725m  
  320.00000p    747.7587m      2.9715m  
  330.00000p    747.7600m      2.9705m  
  340.00000p    747.7614m      2.9695m  
  350.00000p    747.7627m      2.9685m  
  360.00000p    747.7640m      2.9674m  
  370.00000p    747.7654m      2.9664m  
  380.00000p    747.7667m      2.9654m  
  390.00000p    747.7681m      2.9644m  
  400.00000p    747.7694m      2.9634m  
  410.00000p    747.7708m      2.9624m  
  420.00000p    747.7721m      2.9614m  
  430.00000p    747.7734m      2.9604m  
  440.00000p    747.7748m      2.9594m  
  450.00000p    747.7761m      2.9584m  
  460.00000p    747.7775m      2.9574m  
  470.00000p    747.7788m      2.9564m  
  480.00000p    747.7794m      2.9559m  
  490.00000p    747.7786m      2.9565m  
  500.00000p    747.7779m      2.9570m  
  510.00000p    747.7771m      2.9576m  
  520.00000p    747.7764m      2.9582m  
  530.00000p    747.7756m      2.9587m  
  540.00000p    747.7749m      2.9593m  
  550.00000p    747.7741m      2.9599m  
  560.00000p    747.7734m      2.9604m  
  570.00000p    747.7726m      2.9610m  
  580.00000p    747.7719m      2.9615m  
  590.00000p    747.7711m      2.9621m  
  600.00000p    747.7704m      2.9627m  
  610.00000p    747.7696m      2.9632m  
  620.00000p    747.7689m      2.9638m  
  630.00000p    747.7681m      2.9644m  
  640.00000p    747.7674m      2.9649m  
  650.00000p    747.7666m      2.9655m  
  660.00000p    747.7659m      2.9660m  
  670.00000p    747.7651m      2.9666m  
  680.00000p    747.7644m      2.9672m  
  690.00000p    747.7636m      2.9677m  
  700.00000p    747.7629m      2.9683m  
  710.00000p    747.7621m      2.9689m  
  720.00000p    747.7614m      2.9694m  
  730.00000p    747.7606m      2.9700m  
  740.00000p    747.7599m      2.9706m  
  750.00000p    747.7591m      2.9711m  
  760.00000p    747.7584m      2.9717m  
  770.00000p    747.7576m      2.9722m  
  780.00000p    747.7569m      2.9728m  
  790.00000p    747.7561m      2.9734m  
  800.00000p    747.7554m      2.9739m  
  810.00000p    747.7546m      2.9745m  
  820.00000p    747.7539m      2.9751m  
  830.00000p    747.7531m      2.9756m  
  840.00000p    747.7524m      2.9762m  
  850.00000p    747.7516m      2.9767m  
  860.00000p    747.7509m      2.9773m  
  870.00000p    747.7501m      2.9779m  
  880.00000p    747.7503m      2.9778m  
  890.00000p    747.7520m      2.9765m  
  900.00000p    747.7537m      2.9752m  
  910.00000p    747.7554m      2.9739m  
  920.00000p    747.7571m      2.9727m  
  930.00000p    747.7588m      2.9714m  
  940.00000p    747.7605m      2.9701m  
  950.00000p    747.7622m      2.9688m  
  960.00000p    747.7639m      2.9675m  
  970.00000p    747.7656m      2.9663m  
  980.00000p    747.7673m      2.9650m  
  990.00000p    747.7691m      2.9637m  
    1.00000n    747.7708m      2.9624m  
    1.01000n    747.7725m      2.9611m  
    1.02000n    747.7742m      2.9599m  
    1.03000n    747.7759m      2.9586m  
    1.04000n    747.7776m      2.9573m  
    1.05000n    747.7793m      2.9560m  
    1.06000n    726.7462m      3.6195m  
    1.07000n    653.9896m     12.3115m  
    1.08000n    260.5323m    372.6721m  
    1.09000n     33.0810m    743.8957m  
    1.10000n      6.2049m    747.5358m  
    1.11000n      2.8341m    747.6247m  
    1.12000n      2.8339m    747.6426m  
    1.13000n      2.8335m    747.6389m  
    1.14000n      2.8366m    747.6167m  
    1.15000n      2.8389m    747.6000m  
    1.16000n      2.8379m    747.6080m  
    1.17000n      2.8370m    747.6161m  
    1.18000n      2.8360m    747.6242m  
    1.19000n      2.8351m    747.6322m  
    1.20000n      2.8342m    747.6403m  
    1.21000n      2.8332m    747.6484m  
    1.22000n      2.8326m    747.6531m  
    1.23000n      2.8331m    747.6493m  
    1.24000n      2.8335m    747.6456m  
    1.25000n      2.8339m    747.6418m  
    1.26000n      2.8343m    747.6380m  
    1.27000n      2.8347m    747.6343m  
    1.28000n      2.8351m    747.6305m  
    1.29000n      2.8355m    747.6267m  
    1.30000n      2.8359m    747.6229m  
    1.31000n      2.8363m    747.6192m  
    1.32000n      2.8368m    747.6154m  
    1.33000n      2.8372m    747.6116m  
    1.34000n      2.8376m    747.6078m  
    1.35000n      2.8380m    747.6041m  
    1.36000n      2.8384m    747.6003m  
    1.37000n      2.8383m    747.6010m  
    1.38000n      2.8382m    747.6027m  
    1.39000n      2.8380m    747.6044m  
    1.40000n      2.8378m    747.6061m  
    1.41000n      2.8376m    747.6077m  
    1.42000n      2.8374m    747.6094m  
    1.43000n      2.8373m    747.6111m  
    1.44000n      2.8371m    747.6128m  
    1.45000n      2.8369m    747.6145m  
    1.46000n      2.8367m    747.6162m  
    1.47000n      2.8366m    747.6179m  
    1.48000n      2.8364m    747.6196m  
    1.49000n      2.8362m    747.6213m  
    1.50000n      2.8360m    747.6230m  
    1.51000n      2.8358m    747.6247m  
    1.52000n      2.8357m    747.6263m  
    1.53000n      2.8355m    747.6280m  
    1.54000n      2.8353m    747.6297m  
    1.55000n      2.8351m    747.6314m  
    1.56000n      2.8350m    747.6331m  
    1.57000n      2.8348m    747.6348m  
    1.58000n      2.8346m    747.6365m  
    1.59000n      2.8344m    747.6382m  
    1.60000n      2.8342m    747.6399m  
    1.61000n      2.8341m    747.6416m  
    1.62000n      2.8339m    747.6433m  
    1.63000n      2.8337m    747.6449m  
    1.64000n      2.8335m    747.6466m  
    1.65000n      2.8334m    747.6483m  
    1.66000n      2.8332m    747.6500m  
    1.67000n      2.8330m    747.6517m  
    1.68000n      2.8328m    747.6534m  
    1.69000n      2.8329m    747.6523m  
    1.70000n      2.8331m    747.6506m  
    1.71000n      2.8333m    747.6489m  
    1.72000n      2.8335m    747.6472m  
    1.73000n      2.8336m    747.6455m  
    1.74000n      2.8338m    747.6438m  
    1.75000n      2.8340m    747.6421m  
    1.76000n      2.8341m    747.6404m  
    1.77000n      2.8343m    747.6387m  
    1.78000n      2.8345m    747.6371m  
    1.79000n      2.8347m    747.6354m  
    1.80000n      2.8348m    747.6337m  
    1.81000n      2.8350m    747.6320m  
    1.82000n      2.8352m    747.6303m  
    1.83000n      2.8354m    747.6286m  
    1.84000n      2.8355m    747.6269m  
    1.85000n      2.8357m    747.6252m  
    1.86000n      2.8359m    747.6235m  
    1.87000n      2.8361m    747.6219m  
    1.88000n      2.8362m    747.6202m  
    1.89000n      2.8364m    747.6185m  
    1.90000n      2.8366m    747.6168m  
    1.91000n      2.8368m    747.6151m  
    1.92000n      2.8369m    747.6134m  
    1.93000n      2.8371m    747.6117m  
    1.94000n      2.8373m    747.6100m  
    1.95000n      2.8375m    747.6084m  
    1.96000n      2.8376m    747.6067m  
    1.97000n      2.8378m    747.6050m  
    1.98000n      2.8380m    747.6033m  
    1.99000n      2.8381m    747.6016m  
    2.00000n      2.8383m    747.5999m  
    2.01000n     25.2554m    746.9825m  
    2.02000n     85.8185m    740.6030m  
    2.03000n    444.7436m    432.5085m  
    2.04000n    716.5322m      7.5728m  
    2.05000n    744.1693m      3.3081m  
    2.06000n    747.7724m      2.9567m  
    2.07000n    747.7554m      2.9827m  
    2.08000n    747.7630m      2.9814m  
    2.09000n    747.7653m      2.9725m  
    2.10000n    747.7663m      2.9709m  
    2.11000n    747.7646m      2.9670m  
    2.12000n    747.7646m      2.9671m  
    2.13000n    747.7646m      2.9670m  
    2.14000n    747.7646m      2.9670m  
    2.15000n    747.7646m      2.9670m  
    2.16000n    747.7646m      2.9670m  
    2.17000n    747.7646m      2.9670m  
    2.18000n    747.7646m      2.9670m  
    2.19000n    747.7646m      2.9670m  
    2.20000n    747.7646m      2.9670m  
    2.21000n    747.7646m      2.9671m  
    2.22000n    747.7646m      2.9671m  
    2.23000n    747.7646m      2.9671m  
    2.24000n    747.7646m      2.9671m  
    2.25000n    747.7646m      2.9671m  
    2.26000n    747.7646m      2.9671m  
    2.27000n    747.7646m      2.9671m  
    2.28000n    747.7646m      2.9670m  
    2.29000n    747.7646m      2.9670m  
    2.30000n    747.7646m      2.9670m  
    2.31000n    747.7646m      2.9670m  
    2.32000n    747.7646m      2.9670m  
    2.33000n    747.7646m      2.9670m  
    2.34000n    747.7646m      2.9670m  
    2.35000n    747.7646m      2.9670m  
    2.36000n    747.7646m      2.9670m  
    2.37000n    747.7646m      2.9670m  
    2.38000n    747.7646m      2.9670m  
    2.39000n    747.7646m      2.9670m  
    2.40000n    747.7646m      2.9670m  
    2.41000n    747.7646m      2.9670m  
    2.42000n    747.7646m      2.9670m  
    2.43000n    747.7646m      2.9670m  
    2.44000n    747.7646m      2.9670m  
    2.45000n    747.7646m      2.9670m  
    2.46000n    747.7646m      2.9670m  
    2.47000n    747.7646m      2.9670m  
    2.48000n    747.7646m      2.9670m  
    2.49000n    747.7646m      2.9670m  
    2.50000n    747.7646m      2.9670m  
    2.51000n    747.7646m      2.9670m  
    2.52000n    747.7646m      2.9670m  
    2.53000n    747.7646m      2.9670m  
    2.54000n    747.7646m      2.9670m  
    2.55000n    747.7646m      2.9670m  
    2.56000n    747.7646m      2.9670m  
    2.57000n    747.7646m      2.9670m  
    2.58000n    747.7646m      2.9670m  
    2.59000n    747.7646m      2.9670m  
    2.60000n    747.7646m      2.9670m  
    2.61000n    747.7646m      2.9670m  
    2.62000n    747.7646m      2.9670m  
    2.63000n    747.7646m      2.9670m  
    2.64000n    747.7646m      2.9670m  
    2.65000n    747.7646m      2.9670m  
    2.66000n    747.7646m      2.9670m  
    2.67000n    747.7646m      2.9670m  
    2.68000n    747.7646m      2.9670m  
    2.69000n    747.7646m      2.9670m  
    2.70000n    747.7646m      2.9670m  
    2.71000n    747.7646m      2.9671m  
    2.72000n    747.7646m      2.9671m  
    2.73000n    747.7646m      2.9671m  
    2.74000n    747.7646m      2.9671m  
    2.75000n    747.7646m      2.9671m  
    2.76000n    747.7646m      2.9671m  
    2.77000n    747.7646m      2.9671m  
    2.78000n    747.7646m      2.9671m  
    2.79000n    747.7646m      2.9671m  
    2.80000n    747.7646m      2.9671m  
    2.81000n    747.7646m      2.9671m  
    2.82000n    747.7646m      2.9671m  
    2.83000n    747.7646m      2.9671m  
    2.84000n    747.7646m      2.9671m  
    2.85000n    747.7646m      2.9671m  
    2.86000n    747.7646m      2.9671m  
    2.87000n    747.7646m      2.9670m  
    2.88000n    747.7646m      2.9670m  
    2.89000n    747.7646m      2.9670m  
    2.90000n    747.7646m      2.9670m  
    2.91000n    747.7646m      2.9670m  
    2.92000n    747.7646m      2.9670m  
    2.93000n    747.7646m      2.9670m  
    2.94000n    747.7646m      2.9670m  
    2.95000n    747.7646m      2.9670m  
    2.96000n    747.7646m      2.9670m  
    2.97000n    747.7646m      2.9670m  
    2.98000n    747.7646m      2.9670m  
    2.99000n    747.7646m      2.9670m  
    3.00000n    747.7646m      2.9670m  
    3.01000n    747.7646m      2.9670m  
    3.02000n    747.7646m      2.9670m  
    3.03000n    747.7646m      2.9670m  
    3.04000n    747.7646m      2.9670m  
    3.05000n    747.7646m      2.9670m  
    3.06000n    725.9268m      3.7757m  
    3.07000n    656.7963m     11.5082m  
    3.08000n    274.5063m    366.1975m  
    3.09000n     32.9389m    743.1728m  
    3.10000n      6.0574m    747.1159m  
    3.11000n      2.8422m    747.6127m  
    3.12000n      2.8278m    747.6443m  
    3.13000n      2.8345m    747.6289m  
    3.14000n      2.8411m    747.6134m  
    3.15000n      2.8410m    747.6139m  
    3.16000n      2.8387m    747.6195m  
    3.17000n      2.8363m    747.6251m  
    3.18000n      2.8340m    747.6307m  
    3.19000n      2.8317m    747.6363m  
    3.20000n      2.8294m    747.6419m  
    3.21000n      2.8297m    747.6411m  
    3.22000n      2.8308m    747.6385m  
    3.23000n      2.8318m    747.6360m  
    3.24000n      2.8328m    747.6334m  
    3.25000n      2.8339m    747.6309m  
    3.26000n      2.8349m    747.6283m  
    3.27000n      2.8359m    747.6258m  
    3.28000n      2.8370m    747.6233m  
    3.29000n      2.8380m    747.6207m  
    3.30000n      2.8390m    747.6182m  
    3.31000n      2.8401m    747.6156m  
    3.32000n      2.8411m    747.6131m  
    3.33000n      2.8420m    747.6107m  
    3.34000n      2.8416m    747.6119m  
    3.35000n      2.8411m    747.6131m  
    3.36000n      2.8406m    747.6143m  
    3.37000n      2.8401m    747.6155m  
    3.38000n      2.8397m    747.6167m  
    3.39000n      2.8392m    747.6178m  
    3.40000n      2.8387m    747.6190m  
    3.41000n      2.8382m    747.6202m  
    3.42000n      2.8377m    747.6214m  
    3.43000n      2.8373m    747.6226m  
    3.44000n      2.8368m    747.6238m  
    3.45000n      2.8363m    747.6249m  
    3.46000n      2.8358m    747.6261m  
    3.47000n      2.8354m    747.6273m  
    3.48000n      2.8349m    747.6285m  
    3.49000n      2.8344m    747.6297m  
    3.50000n      2.8339m    747.6309m  
    3.51000n      2.8335m    747.6320m  
    3.52000n      2.8330m    747.6332m  
    3.53000n      2.8325m    747.6344m  
    3.54000n      2.8320m    747.6356m  
    3.55000n      2.8316m    747.6368m  
    3.56000n      2.8311m    747.6380m  
    3.57000n      2.8306m    747.6391m  
    3.58000n      2.8301m    747.6403m  
    3.59000n      2.8297m    747.6415m  
    3.60000n      2.8293m    747.6425m  
    3.61000n      2.8296m    747.6417m  
    3.62000n      2.8299m    747.6409m  
    3.63000n      2.8302m    747.6401m  
    3.64000n      2.8305m    747.6394m  
    3.65000n      2.8308m    747.6386m  
    3.66000n      2.8311m    747.6378m  
    3.67000n      2.8315m    747.6370m  
    3.68000n      2.8318m    747.6362m  
    3.69000n      2.8321m    747.6354m  
    3.70000n      2.8324m    747.6346m  
    3.71000n      2.8327m    747.6338m  
    3.72000n      2.8330m    747.6330m  
    3.73000n      2.8334m    747.6323m  
    3.74000n      2.8337m    747.6315m  
    3.75000n      2.8340m    747.6307m  
    3.76000n      2.8343m    747.6299m  
    3.77000n      2.8346m    747.6291m  
    3.78000n      2.8349m    747.6283m  
    3.79000n      2.8353m    747.6275m  
    3.80000n      2.8356m    747.6267m  
    3.81000n      2.8359m    747.6259m  
    3.82000n      2.8362m    747.6251m  
    3.83000n      2.8365m    747.6244m  
    3.84000n      2.8368m    747.6236m  
    3.85000n      2.8372m    747.6228m  
    3.86000n      2.8375m    747.6220m  
    3.87000n      2.8378m    747.6212m  
    3.88000n      2.8381m    747.6204m  
    3.89000n      2.8384m    747.6196m  
    3.90000n      2.8387m    747.6188m  
    3.91000n      2.8391m    747.6180m  
    3.92000n      2.8394m    747.6173m  
    3.93000n      2.8397m    747.6165m  
    3.94000n      2.8400m    747.6157m  
    3.95000n      2.8403m    747.6149m  
    3.96000n      2.8406m    747.6141m  
    3.97000n      2.8410m    747.6133m  
    3.98000n      2.8413m    747.6125m  
    3.99000n      2.8416m    747.6117m  
    4.00000n      2.8419m    747.6109m  
    4.01000n     25.6655m    746.8806m  
    4.02000n     81.7637m    740.9207m  
    4.03000n    446.7637m    422.1019m  
    4.04000n    716.0490m      7.0742m  
    4.05000n    744.0521m      3.2006m  
    4.06000n    747.7508m      2.9854m  
    4.07000n    747.7724m      2.9566m  
    4.08000n    747.7646m      2.9670m  
    4.09000n    747.7646m      2.9670m  
    4.10000n    747.7646m      2.9670m  
    4.11000n    747.7646m      2.9670m  
    4.12000n    747.7646m      2.9670m  
    4.13000n    747.7646m      2.9670m  
    4.14000n    747.7646m      2.9670m  
    4.15000n    747.7646m      2.9670m  
    4.16000n    747.7646m      2.9670m  
    4.17000n    747.7646m      2.9670m  
    4.18000n    747.7646m      2.9670m  
    4.19000n    747.7646m      2.9670m  
    4.20000n    747.7646m      2.9670m  
    4.21000n    747.7646m      2.9670m  
    4.22000n    747.7646m      2.9670m  
    4.23000n    747.7646m      2.9670m  
    4.24000n    747.7646m      2.9670m  
    4.25000n    747.7646m      2.9670m  
    4.26000n    747.7646m      2.9670m  
    4.27000n    747.7646m      2.9670m  
    4.28000n    747.7646m      2.9670m  
    4.29000n    747.7646m      2.9670m  
    4.30000n    747.7646m      2.9670m  
    4.31000n    747.7646m      2.9670m  
    4.32000n    747.7646m      2.9670m  
    4.33000n    747.7646m      2.9670m  
    4.34000n    747.7646m      2.9670m  
    4.35000n    747.7646m      2.9670m  
    4.36000n    747.7646m      2.9670m  
    4.37000n    747.7646m      2.9670m  
    4.38000n    747.7646m      2.9670m  
    4.39000n    747.7646m      2.9670m  
    4.40000n    747.7646m      2.9670m  
    4.41000n    747.7646m      2.9670m  
    4.42000n    747.7646m      2.9670m  
    4.43000n    747.7646m      2.9670m  
    4.44000n    747.7646m      2.9670m  
    4.45000n    747.7646m      2.9670m  
    4.46000n    747.7646m      2.9670m  
    4.47000n    747.7646m      2.9670m  
    4.48000n    747.7646m      2.9670m  
    4.49000n    747.7646m      2.9670m  
    4.50000n    747.7646m      2.9670m  
    4.51000n    747.7646m      2.9670m  
    4.52000n    747.7646m      2.9670m  
    4.53000n    747.7646m      2.9670m  
    4.54000n    747.7646m      2.9670m  
    4.55000n    747.7646m      2.9670m  
    4.56000n    747.7646m      2.9670m  
    4.57000n    747.7646m      2.9670m  
    4.58000n    747.7646m      2.9670m  
    4.59000n    747.7646m      2.9670m  
    4.60000n    747.7646m      2.9670m  
    4.61000n    747.7646m      2.9670m  
    4.62000n    747.7646m      2.9670m  
    4.63000n    747.7646m      2.9670m  
    4.64000n    747.7646m      2.9670m  
    4.65000n    747.7646m      2.9670m  
    4.66000n    747.7646m      2.9670m  
    4.67000n    747.7646m      2.9670m  
    4.68000n    747.7646m      2.9670m  
    4.69000n    747.7646m      2.9670m  
    4.70000n    747.7646m      2.9670m  
    4.71000n    747.7646m      2.9670m  
    4.72000n    747.7646m      2.9670m  
    4.73000n    747.7646m      2.9670m  
    4.74000n    747.7646m      2.9670m  
    4.75000n    747.7646m      2.9670m  
    4.76000n    747.7646m      2.9670m  
    4.77000n    747.7646m      2.9670m  
    4.78000n    747.7646m      2.9670m  
    4.79000n    747.7646m      2.9670m  
    4.80000n    747.7646m      2.9670m  
    4.81000n    747.7646m      2.9670m  
    4.82000n    747.7646m      2.9670m  
    4.83000n    747.7646m      2.9670m  
    4.84000n    747.7646m      2.9670m  
    4.85000n    747.7646m      2.9670m  
    4.86000n    747.7646m      2.9670m  
    4.87000n    747.7646m      2.9670m  
    4.88000n    747.7646m      2.9670m  
    4.89000n    747.7646m      2.9670m  
    4.90000n    747.7646m      2.9670m  
    4.91000n    747.7646m      2.9670m  
    4.92000n    747.7646m      2.9670m  
    4.93000n    747.7646m      2.9670m  
    4.94000n    747.7646m      2.9670m  
    4.95000n    747.7646m      2.9670m  
    4.96000n    747.7646m      2.9670m  
    4.97000n    747.7646m      2.9670m  
    4.98000n    747.7646m      2.9670m  
    4.99000n    747.7646m      2.9670m  
    5.00000n    747.7646m      2.9670m  
    5.01000n    747.7646m      2.9670m  
    5.02000n    747.7646m      2.9670m  
    5.03000n    747.7646m      2.9670m  
    5.04000n    747.7646m      2.9670m  
    5.05000n    747.7646m      2.9670m  
    5.06000n    725.4706m      3.8682m  
    5.07000n    653.0251m     12.2386m  
    5.08000n    265.8595m    358.0218m  
    5.09000n     32.4716m    743.6001m  
    5.10000n      6.0771m    747.4061m  
    5.11000n      2.8323m    747.6412m  
    5.12000n      2.8370m    747.6232m  
    5.13000n      2.8371m    747.6526m  
    5.14000n      2.8354m    747.6294m  
    5.15000n      2.8336m    747.6062m  
    5.16000n      2.8329m    747.5951m  
    5.17000n      2.8337m    747.6043m  
    5.18000n      2.8345m    747.6135m  
    5.19000n      2.8354m    747.6227m  
    5.20000n      2.8362m    747.6319m  
    5.21000n      2.8371m    747.6411m  
    5.22000n      2.8379m    747.6503m  
    5.23000n      2.8388m    747.6595m  
    5.24000n      2.8385m    747.6572m  
    5.25000n      2.8381m    747.6528m  
    5.26000n      2.8376m    747.6483m  
    5.27000n      2.8372m    747.6439m  
    5.28000n      2.8368m    747.6395m  
    5.29000n      2.8363m    747.6350m  
    5.30000n      2.8359m    747.6306m  
    5.31000n      2.8355m    747.6262m  
    5.32000n      2.8350m    747.6217m  
    5.33000n      2.8346m    747.6173m  
    5.34000n      2.8341m    747.6129m  
    5.35000n      2.8337m    747.6084m  
    5.36000n      2.8333m    747.6040m  
    5.37000n      2.8328m    747.5996m  
    5.38000n      2.8324m    747.5951m  
    5.39000n      2.8323m    747.5939m  
    5.40000n      2.8325m    747.5960m  
    5.41000n      2.8327m    747.5981m  
    5.42000n      2.8329m    747.6001m  
    5.43000n      2.8331m    747.6022m  
    5.44000n      2.8333m    747.6043m  
    5.45000n      2.8335m    747.6064m  
    5.46000n      2.8338m    747.6084m  
    5.47000n      2.8340m    747.6105m  
    5.48000n      2.8342m    747.6126m  
    5.49000n      2.8344m    747.6146m  
    5.50000n      2.8346m    747.6167m  
    5.51000n      2.8348m    747.6188m  
    5.52000n      2.8350m    747.6208m  
    5.53000n      2.8352m    747.6229m  
    5.54000n      2.8355m    747.6250m  
    5.55000n      2.8357m    747.6270m  
    5.56000n      2.8359m    747.6291m  
    5.57000n      2.8361m    747.6312m  
    5.58000n      2.8363m    747.6332m  
    5.59000n      2.8365m    747.6353m  
    5.60000n      2.8367m    747.6374m  
    5.61000n      2.8369m    747.6395m  
    5.62000n      2.8371m    747.6415m  
    5.63000n      2.8374m    747.6436m  
    5.64000n      2.8376m    747.6457m  
    5.65000n      2.8378m    747.6477m  
    5.66000n      2.8380m    747.6498m  
    5.67000n      2.8382m    747.6519m  
    5.68000n      2.8384m    747.6539m  
    5.69000n      2.8386m    747.6560m  
    5.70000n      2.8388m    747.6581m  
    5.71000n      2.8391m    747.6601m  
    5.72000n      2.8388m    747.6582m  
    5.73000n      2.8386m    747.6559m  
    5.74000n      2.8384m    747.6536m  
    5.75000n      2.8381m    747.6513m  
    5.76000n      2.8379m    747.6490m  
    5.77000n      2.8376m    747.6466m  
    5.78000n      2.8374m    747.6443m  
    5.79000n      2.8372m    747.6420m  
    5.80000n      2.8369m    747.6397m  
    5.81000n      2.8367m    747.6374m  
    5.82000n      2.8364m    747.6350m  
    5.83000n      2.8362m    747.6327m  
    5.84000n      2.8359m    747.6304m  
    5.85000n      2.8357m    747.6281m  
    5.86000n      2.8355m    747.6258m  
    5.87000n      2.8352m    747.6234m  
    5.88000n      2.8350m    747.6211m  
    5.89000n      2.8347m    747.6188m  
    5.90000n      2.8345m    747.6165m  
    5.91000n      2.8342m    747.6142m  
    5.92000n      2.8340m    747.6119m  
    5.93000n      2.8338m    747.6095m  
    5.94000n      2.8335m    747.6072m  
    5.95000n      2.8333m    747.6049m  
    5.96000n      2.8330m    747.6026m  
    5.97000n      2.8328m    747.6003m  
    5.98000n      2.8325m    747.5979m  
    5.99000n      2.8323m    747.5956m  
    6.00000n      2.8321m    747.5933m  
    6.01000n     25.0900m    747.0222m  
    6.02000n     88.6819m    740.4210m  
    6.03000n    442.5873m    440.1156m  
    6.04000n    715.6085m      6.4054m  
    6.05000n    744.1594m      3.4242m  
    6.06000n    747.7581m      2.9749m  
    6.07000n    747.7787m      2.9505m  
    6.08000n    747.7647m      2.9674m  
    6.09000n    747.7646m      2.9671m  
    6.10000n    747.7646m      2.9670m  
    6.11000n    747.7646m      2.9670m  
    6.12000n    747.7646m      2.9670m  
    6.13000n    747.7646m      2.9670m  
    6.14000n    747.7646m      2.9670m  
    6.15000n    747.7646m      2.9670m  
    6.16000n    747.7646m      2.9670m  
    6.17000n    747.7646m      2.9670m  
    6.18000n    747.7646m      2.9670m  
    6.19000n    747.7646m      2.9670m  
    6.20000n    747.7646m      2.9670m  
    6.21000n    747.7646m      2.9670m  
    6.22000n    747.7646m      2.9670m  
    6.23000n    747.7646m      2.9670m  
    6.24000n    747.7646m      2.9670m  
    6.25000n    747.7646m      2.9670m  
    6.26000n    747.7646m      2.9670m  
    6.27000n    747.7646m      2.9670m  
    6.28000n    747.7646m      2.9670m  
    6.29000n    747.7646m      2.9670m  
    6.30000n    747.7646m      2.9670m  
    6.31000n    747.7646m      2.9670m  
    6.32000n    747.7646m      2.9670m  
    6.33000n    747.7646m      2.9670m  
    6.34000n    747.7646m      2.9670m  
    6.35000n    747.7646m      2.9670m  
    6.36000n    747.7646m      2.9670m  
    6.37000n    747.7646m      2.9670m  
    6.38000n    747.7646m      2.9670m  
    6.39000n    747.7646m      2.9670m  
    6.40000n    747.7646m      2.9670m  
    6.41000n    747.7646m      2.9670m  
    6.42000n    747.7646m      2.9670m  
    6.43000n    747.7646m      2.9670m  
    6.44000n    747.7646m      2.9670m  
    6.45000n    747.7646m      2.9670m  
    6.46000n    747.7646m      2.9670m  
    6.47000n    747.7646m      2.9670m  
    6.48000n    747.7646m      2.9670m  
    6.49000n    747.7646m      2.9670m  
    6.50000n    747.7646m      2.9670m  
    6.51000n    747.7646m      2.9670m  
    6.52000n    747.7646m      2.9670m  
    6.53000n    747.7646m      2.9670m  
    6.54000n    747.7646m      2.9670m  
    6.55000n    747.7646m      2.9670m  
    6.56000n    747.7646m      2.9670m  
    6.57000n    747.7646m      2.9670m  
    6.58000n    747.7646m      2.9670m  
    6.59000n    747.7646m      2.9670m  
    6.60000n    747.7646m      2.9670m  
    6.61000n    747.7646m      2.9670m  
    6.62000n    747.7646m      2.9670m  
    6.63000n    747.7646m      2.9670m  
    6.64000n    747.7646m      2.9670m  
    6.65000n    747.7646m      2.9670m  
    6.66000n    747.7646m      2.9670m  
    6.67000n    747.7646m      2.9670m  
    6.68000n    747.7646m      2.9670m  
    6.69000n    747.7646m      2.9670m  
    6.70000n    747.7646m      2.9670m  
    6.71000n    747.7646m      2.9670m  
    6.72000n    747.7646m      2.9670m  
    6.73000n    747.7646m      2.9670m  
    6.74000n    747.7646m      2.9670m  
    6.75000n    747.7646m      2.9670m  
    6.76000n    747.7646m      2.9670m  
    6.77000n    747.7646m      2.9670m  
    6.78000n    747.7646m      2.9670m  
    6.79000n    747.7646m      2.9670m  
    6.80000n    747.7646m      2.9670m  
    6.81000n    747.7646m      2.9670m  
    6.82000n    747.7646m      2.9670m  
    6.83000n    747.7646m      2.9670m  
    6.84000n    747.7646m      2.9670m  
    6.85000n    747.7646m      2.9670m  
    6.86000n    747.7646m      2.9670m  
    6.87000n    747.7646m      2.9670m  
    6.88000n    747.7646m      2.9670m  
    6.89000n    747.7646m      2.9670m  
    6.90000n    747.7646m      2.9670m  
    6.91000n    747.7646m      2.9670m  
    6.92000n    747.7646m      2.9670m  
    6.93000n    747.7646m      2.9670m  
    6.94000n    747.7646m      2.9670m  
    6.95000n    747.7646m      2.9670m  
    6.96000n    747.7646m      2.9670m  
    6.97000n    747.7646m      2.9670m  
    6.98000n    747.7646m      2.9670m  
    6.99000n    747.7646m      2.9670m  
    7.00000n    747.7646m      2.9670m  
    7.01000n    747.7646m      2.9670m  
    7.02000n    747.7646m      2.9670m  
    7.03000n    747.7646m      2.9670m  
    7.04000n    747.7646m      2.9670m  
    7.05000n    747.7646m      2.9670m  
    7.06000n    726.1251m      3.7367m  
    7.07000n    659.5070m     11.1342m  
    7.08000n    282.7495m    418.3350m  
    7.09000n   -575.7221m      1.6478   
    7.10000n     -1.6977       1.7738   
    7.11000n   -844.3992m    753.9307m  
    7.12000n   -238.9887m    762.2491m  
    7.13000n   -890.7625m    863.3783m  
    7.14000n     -1.4534     747.2318m  
    7.15000n     -1.7602     744.2318m  
    7.16000n     -1.9539     746.2804m  
    7.17000n     -1.9699     749.5672m  
    7.18000n     -1.7636     754.2466m  
    7.19000n     -1.3378     759.3130m  
    7.20000n   -857.5035m    760.6048m  
    7.21000n     -1.6909       1.7882   
    7.22000n      1.4534m    750.2431m  
    7.23000n      2.8380m    747.6291m  
    7.24000n      2.8349m    747.6261m  
    7.25000n      2.8237m    747.6211m  
    7.26000n      2.8311m    747.6247m  
    7.27000n      2.8385m    747.6283m  
    7.28000n      2.8459m    747.6319m  
    7.29000n      2.8480m    747.6329m  
    7.30000n      2.8448m    747.6313m  
    7.31000n      2.8417m    747.6297m  
    7.32000n      2.8385m    747.6281m  
    7.33000n      2.8353m    747.6265m  
    7.34000n      2.8321m    747.6249m  
    7.35000n      2.8289m    747.6233m  
    7.36000n      2.8258m    747.6218m  
    7.37000n      2.8226m    747.6202m  
    7.38000n      2.8226m    747.6202m  
    7.39000n      2.8241m    747.6209m  
    7.40000n      2.8255m    747.6216m  
    7.41000n      2.8269m    747.6224m  
    7.42000n      2.8284m    747.6231m  
    7.43000n      2.8298m    747.6238m  
    7.44000n      2.8312m    747.6245m  
    7.45000n      2.8327m    747.6253m  
    7.46000n      2.8341m    747.6260m  
    7.47000n      2.8355m    747.6267m  
    7.48000n      2.8370m    747.6274m  
    7.49000n      2.8384m    747.6281m  
    7.50000n      2.8398m    747.6289m  
    7.51000n      2.8413m    747.6296m  
    7.52000n      2.8427m    747.6303m  
    7.53000n      2.8441m    747.6310m  
    7.54000n      2.8456m    747.6318m  
    7.55000n      2.8470m    747.6325m  
    7.56000n      2.8484m    747.6332m  
    7.57000n      2.8493m    747.6337m  
    7.58000n      2.8486m    747.6333m  
    7.59000n      2.8478m    747.6329m  
    7.60000n      2.8471m    747.6325m  
    7.61000n      2.8463m    747.6321m  
    7.62000n      2.8456m    747.6318m  
    7.63000n      2.8448m    747.6314m  
    7.64000n      2.8441m    747.6310m  
    7.65000n      2.8433m    747.6306m  
    7.66000n      2.8426m    747.6302m  
    7.67000n      2.8418m    747.6299m  
    7.68000n      2.8411m    747.6295m  
    7.69000n      2.8403m    747.6291m  
    7.70000n      2.8396m    747.6287m  
    7.71000n      2.8388m    747.6283m  
    7.72000n      2.8381m    747.6280m  
    7.73000n      2.8373m    747.6276m  
    7.74000n      2.8366m    747.6272m  
    7.75000n      2.8358m    747.6268m  
    7.76000n      2.8351m    747.6264m  
    7.77000n      2.8343m    747.6261m  
    7.78000n      2.8336m    747.6257m  
    7.79000n      2.8328m    747.6253m  
    7.80000n      2.8321m    747.6249m  
    7.81000n      2.8313m    747.6245m  
    7.82000n      2.8306m    747.6242m  
    7.83000n      2.8298m    747.6238m  
    7.84000n      2.8291m    747.6234m  
    7.85000n      2.8283m    747.6230m  
    7.86000n      2.8276m    747.6226m  
    7.87000n      2.8268m    747.6222m  
    7.88000n      2.8261m    747.6219m  
    7.89000n      2.8253m    747.6215m  
    7.90000n      2.8245m    747.6211m  
    7.91000n      2.8238m    747.6207m  
    7.92000n      2.8230m    747.6203m  
    7.93000n      2.8223m    747.6200m  
    7.94000n      2.8225m    747.6201m  
    7.95000n      2.8269m    747.6223m  
    7.96000n      2.8314m    747.6246m  
    7.97000n      2.8359m    747.6269m  
    7.98000n      2.8404m    747.6292m  
    7.99000n      2.8449m    747.6315m  
    8.00000n      2.8494m    747.6338m  
y
x

        time    voltage      voltage    
                 outin_10     outin_20  
    0.          747.6267m      2.9753m  
   10.00000p    746.9897m      2.9808m  
   20.00000p    741.8133m      3.1715m  
   30.00000p    441.1487m    137.1230m  
   40.00000p      6.9163m    748.2352m  
   50.00000p      3.7417m    748.4919m  
   60.00000p      2.9857m    747.6170m  
   70.00000p      2.9549m    747.6243m  
   80.00000p      2.9677m    747.6192m  
   90.00000p      2.9794m    747.6145m  
  100.00000p      2.9745m    747.6168m  
  110.00000p      2.9697m    747.6192m  
  120.00000p      2.9649m    747.6215m  
  130.00000p      2.9600m    747.6238m  
  140.00000p      2.9552m    747.6261m  
  150.00000p      2.9573m    747.6250m  
  160.00000p      2.9594m    747.6240m  
  170.00000p      2.9615m    747.6229m  
  180.00000p      2.9636m    747.6218m  
  190.00000p      2.9657m    747.6207m  
  200.00000p      2.9678m    747.6196m  
  210.00000p      2.9700m    747.6185m  
  220.00000p      2.9721m    747.6174m  
  230.00000p      2.9742m    747.6163m  
  240.00000p      2.9763m    747.6152m  
  250.00000p      2.9784m    747.6141m  
  260.00000p      2.9775m    747.6145m  
  270.00000p      2.9765m    747.6151m  
  280.00000p      2.9755m    747.6156m  
  290.00000p      2.9745m    747.6162m  
  300.00000p      2.9735m    747.6167m  
  310.00000p      2.9725m    747.6173m  
  320.00000p      2.9715m    747.6178m  
  330.00000p      2.9705m    747.6183m  
  340.00000p      2.9695m    747.6189m  
  350.00000p      2.9685m    747.6194m  
  360.00000p      2.9674m    747.6200m  
  370.00000p      2.9664m    747.6205m  
  380.00000p      2.9654m    747.6211m  
  390.00000p      2.9644m    747.6216m  
  400.00000p      2.9634m    747.6222m  
  410.00000p      2.9624m    747.6227m  
  420.00000p      2.9614m    747.6232m  
  430.00000p      2.9604m    747.6238m  
  440.00000p      2.9594m    747.6243m  
  450.00000p      2.9584m    747.6249m  
  460.00000p      2.9574m    747.6254m  
  470.00000p      2.9564m    747.6260m  
  480.00000p      2.9559m    747.6262m  
  490.00000p      2.9565m    747.6259m  
  500.00000p      2.9570m    747.6256m  
  510.00000p      2.9576m    747.6253m  
  520.00000p      2.9582m    747.6250m  
  530.00000p      2.9587m    747.6246m  
  540.00000p      2.9593m    747.6243m  
  550.00000p      2.9599m    747.6240m  
  560.00000p      2.9604m    747.6237m  
  570.00000p      2.9610m    747.6234m  
  580.00000p      2.9615m    747.6231m  
  590.00000p      2.9621m    747.6228m  
  600.00000p      2.9627m    747.6225m  
  610.00000p      2.9632m    747.6222m  
  620.00000p      2.9638m    747.6219m  
  630.00000p      2.9644m    747.6216m  
  640.00000p      2.9649m    747.6212m  
  650.00000p      2.9655m    747.6209m  
  660.00000p      2.9660m    747.6206m  
  670.00000p      2.9666m    747.6203m  
  680.00000p      2.9672m    747.6200m  
  690.00000p      2.9677m    747.6197m  
  700.00000p      2.9683m    747.6194m  
  710.00000p      2.9689m    747.6191m  
  720.00000p      2.9694m    747.6188m  
  730.00000p      2.9700m    747.6185m  
  740.00000p      2.9706m    747.6182m  
  750.00000p      2.9711m    747.6178m  
  760.00000p      2.9717m    747.6175m  
  770.00000p      2.9722m    747.6172m  
  780.00000p      2.9728m    747.6169m  
  790.00000p      2.9734m    747.6166m  
  800.00000p      2.9739m    747.6163m  
  810.00000p      2.9745m    747.6160m  
  820.00000p      2.9751m    747.6157m  
  830.00000p      2.9756m    747.6154m  
  840.00000p      2.9762m    747.6151m  
  850.00000p      2.9767m    747.6148m  
  860.00000p      2.9773m    747.6145m  
  870.00000p      2.9779m    747.6141m  
  880.00000p      2.9778m    747.6142m  
  890.00000p      2.9765m    747.6149m  
  900.00000p      2.9752m    747.6156m  
  910.00000p      2.9739m    747.6164m  
  920.00000p      2.9727m    747.6171m  
  930.00000p      2.9714m    747.6178m  
  940.00000p      2.9701m    747.6185m  
  950.00000p      2.9688m    747.6192m  
  960.00000p      2.9675m    747.6199m  
  970.00000p      2.9663m    747.6207m  
  980.00000p      2.9650m    747.6214m  
  990.00000p      2.9637m    747.6221m  
    1.00000n      2.9624m    747.6228m  
    1.01000n      2.9611m    747.6235m  
    1.02000n      2.9599m    747.6242m  
    1.03000n      2.9586m    747.6250m  
    1.04000n      2.9573m    747.6257m  
    1.05000n      2.9560m    747.6264m  
    1.06000n      3.6195m    747.6178m  
    1.07000n     12.3115m    747.4984m  
    1.08000n    372.6721m    645.9516m  
    1.09000n    743.8957m      2.2155m  
    1.10000n    747.5358m      3.8628m  
    1.11000n    747.6247m      2.9701m  
    1.12000n    747.6426m      2.9889m  
    1.13000n    747.6389m      2.9844m  
    1.14000n    747.6167m      2.9665m  
    1.15000n    747.6000m      2.9532m  
    1.16000n    747.6080m      2.9599m  
    1.17000n    747.6161m      2.9667m  
    1.18000n    747.6242m      2.9734m  
    1.19000n    747.6322m      2.9802m  
    1.20000n    747.6403m      2.9869m  
    1.21000n    747.6484m      2.9937m  
    1.22000n    747.6531m      2.9976m  
    1.23000n    747.6493m      2.9944m  
    1.24000n    747.6456m      2.9912m  
    1.25000n    747.6418m      2.9880m  
    1.26000n    747.6380m      2.9848m  
    1.27000n    747.6343m      2.9816m  
    1.28000n    747.6305m      2.9784m  
    1.29000n    747.6267m      2.9752m  
    1.30000n    747.6229m      2.9720m  
    1.31000n    747.6192m      2.9688m  
    1.32000n    747.6154m      2.9656m  
    1.33000n    747.6116m      2.9624m  
    1.34000n    747.6078m      2.9591m  
    1.35000n    747.6041m      2.9559m  
    1.36000n    747.6003m      2.9527m  
    1.37000n    747.6010m      2.9533m  
    1.38000n    747.6027m      2.9548m  
    1.39000n    747.6044m      2.9562m  
    1.40000n    747.6061m      2.9577m  
    1.41000n    747.6077m      2.9591m  
    1.42000n    747.6094m      2.9606m  
    1.43000n    747.6111m      2.9620m  
    1.44000n    747.6128m      2.9635m  
    1.45000n    747.6145m      2.9649m  
    1.46000n    747.6162m      2.9664m  
    1.47000n    747.6179m      2.9678m  
    1.48000n    747.6196m      2.9693m  
    1.49000n    747.6213m      2.9707m  
    1.50000n    747.6230m      2.9721m  
    1.51000n    747.6247m      2.9736m  
    1.52000n    747.6263m      2.9750m  
    1.53000n    747.6280m      2.9765m  
    1.54000n    747.6297m      2.9779m  
    1.55000n    747.6314m      2.9794m  
    1.56000n    747.6331m      2.9808m  
    1.57000n    747.6348m      2.9823m  
    1.58000n    747.6365m      2.9837m  
    1.59000n    747.6382m      2.9852m  
    1.60000n    747.6399m      2.9866m  
    1.61000n    747.6416m      2.9881m  
    1.62000n    747.6433m      2.9895m  
    1.63000n    747.6449m      2.9910m  
    1.64000n    747.6466m      2.9924m  
    1.65000n    747.6483m      2.9938m  
    1.66000n    747.6500m      2.9953m  
    1.67000n    747.6517m      2.9967m  
    1.68000n    747.6534m      2.9982m  
    1.69000n    747.6523m      2.9972m  
    1.70000n    747.6506m      2.9957m  
    1.71000n    747.6489m      2.9943m  
    1.72000n    747.6472m      2.9928m  
    1.73000n    747.6455m      2.9914m  
    1.74000n    747.6438m      2.9899m  
    1.75000n    747.6421m      2.9885m  
    1.76000n    747.6404m      2.9870m  
    1.77000n    747.6387m      2.9856m  
    1.78000n    747.6371m      2.9841m  
    1.79000n    747.6354m      2.9827m  
    1.80000n    747.6337m      2.9812m  
    1.81000n    747.6320m      2.9798m  
    1.82000n    747.6303m      2.9783m  
    1.83000n    747.6286m      2.9769m  
    1.84000n    747.6269m      2.9754m  
    1.85000n    747.6252m      2.9740m  
    1.86000n    747.6235m      2.9725m  
    1.87000n    747.6219m      2.9711m  
    1.88000n    747.6202m      2.9696m  
    1.89000n    747.6185m      2.9682m  
    1.90000n    747.6168m      2.9667m  
    1.91000n    747.6151m      2.9653m  
    1.92000n    747.6134m      2.9638m  
    1.93000n    747.6117m      2.9624m  
    1.94000n    747.6100m      2.9609m  
    1.95000n    747.6084m      2.9595m  
    1.96000n    747.6067m      2.9580m  
    1.97000n    747.6050m      2.9566m  
    1.98000n    747.6033m      2.9551m  
    1.99000n    747.6016m      2.9537m  
    2.00000n    747.5999m      2.9522m  
    2.01000n    746.9825m      2.9887m  
    2.02000n    740.6030m      3.1693m  
    2.03000n    432.5085m    140.9196m  
    2.04000n      7.5728m    746.4380m  
    2.05000n      3.3081m    746.6102m  
    2.06000n      2.9567m    747.6203m  
    2.07000n      2.9827m    747.6252m  
    2.08000n      2.9814m    747.6359m  
    2.09000n      2.9725m    747.6281m  
    2.10000n      2.9709m    747.6312m  
    2.11000n      2.9670m    747.6201m  
    2.12000n      2.9671m    747.6203m  
    2.13000n      2.9670m    747.6202m  
    2.14000n      2.9670m    747.6200m  
    2.15000n      2.9670m    747.6200m  
    2.16000n      2.9670m    747.6200m  
    2.17000n      2.9670m    747.6201m  
    2.18000n      2.9670m    747.6201m  
    2.19000n      2.9670m    747.6201m  
    2.20000n      2.9670m    747.6202m  
    2.21000n      2.9671m    747.6202m  
    2.22000n      2.9671m    747.6203m  
    2.23000n      2.9671m    747.6203m  
    2.24000n      2.9671m    747.6203m  
    2.25000n      2.9671m    747.6203m  
    2.26000n      2.9671m    747.6203m  
    2.27000n      2.9671m    747.6202m  
    2.28000n      2.9670m    747.6202m  
    2.29000n      2.9670m    747.6202m  
    2.30000n      2.9670m    747.6202m  
    2.31000n      2.9670m    747.6201m  
    2.32000n      2.9670m    747.6201m  
    2.33000n      2.9670m    747.6201m  
    2.34000n      2.9670m    747.6201m  
    2.35000n      2.9670m    747.6201m  
    2.36000n      2.9670m    747.6200m  
    2.37000n      2.9670m    747.6200m  
    2.38000n      2.9670m    747.6200m  
    2.39000n      2.9670m    747.6200m  
    2.40000n      2.9670m    747.6200m  
    2.41000n      2.9670m    747.6200m  
    2.42000n      2.9670m    747.6200m  
    2.43000n      2.9670m    747.6200m  
    2.44000n      2.9670m    747.6200m  
    2.45000n      2.9670m    747.6200m  
    2.46000n      2.9670m    747.6200m  
[...]
    3.68000n    747.6201m      2.9757m  
    3.69000n    747.6201m      2.9757m  
    3.70000n    747.6201m      2.9757m  
    3.71000n    747.6201m      2.9757m  
    3.72000n    747.6201m      2.9757m  
    3.73000n    747.6201m      2.9757m  
    3.74000n    747.6201m      2.9757m  
    3.75000n    747.6201m      2.9757m  
    3.76000n    747.6201m      2.9757m  
    3.77000n    747.6201m      2.9757m  
    3.78000n    747.6201m      2.9757m  
    3.79000n    747.6201m      2.9757m  
    3.80000n    747.6201m      2.9757m  
    3.81000n    747.6201m      2.9757m  
    3.82000n    747.6201m      2.9757m  
    3.83000n    747.6201m      2.9757m  
    3.84000n    747.6201m      2.9757m  
    3.85000n    747.6201m      2.9757m  
    3.86000n    747.6201m      2.9757m  
    3.87000n    747.6201m      2.9757m  
    3.88000n    747.6201m      2.9757m  
    3.89000n    747.6201m      2.9757m  
    3.90000n    747.6201m      2.9757m  
    3.91000n    747.6201m      2.9757m  
    3.92000n    747.6201m      2.9757m  
    3.93000n    747.6201m      2.9757m  
    3.94000n    747.6201m      2.9757m  
    3.95000n    747.6201m      2.9757m  
    3.96000n    747.6201m      2.9757m  
    3.97000n    747.6201m      2.9757m  
    3.98000n    747.6201m      2.9757m  
    3.99000n    747.6201m      2.9757m  
    4.00000n    747.6201m      2.9757m  
    4.01000n    747.6201m      2.9757m  
    4.02000n    747.6201m      2.9757m  
    4.03000n    747.6201m      2.9757m  
    4.04000n    747.6201m      2.9757m  
    4.05000n    747.6201m      2.9757m  
    4.06000n    747.6414m      2.9628m  
    4.07000n    747.3638m      2.9891m  
    4.08000n    580.3268m     17.5831m  
    4.09000n      2.8548m    746.3896m  
    4.10000n      3.4352m    748.8582m  
    4.11000n      2.9676m    747.6147m  
    4.12000n      2.9920m    747.6316m  
    4.13000n      2.9794m    747.6224m  
    4.14000n      2.9649m    747.6119m  
    4.15000n      2.9603m    747.6087m  
    4.16000n      2.9650m    747.6122m  
    4.17000n      2.9696m    747.6157m  
    4.18000n      2.9743m    747.6192m  
    4.19000n      2.9790m    747.6227m  
    4.20000n      2.9836m    747.6263m  
    4.21000n      2.9883m    747.6298m  
    4.22000n      2.9924m    747.6328m  
    4.23000n      2.9902m    747.6312m  
    4.24000n      2.9881m    747.6296m  
    4.25000n      2.9859m    747.6279m  
    4.26000n      2.9838m    747.6263m  
    4.27000n      2.9816m    747.6246m  
    4.28000n      2.9795m    747.6230m  
    4.29000n      2.9773m    747.6213m  
    4.30000n      2.9752m    747.6197m  
    4.31000n      2.9730m    747.6180m  
    4.32000n      2.9709m    747.6164m  
    4.33000n      2.9687m    747.6148m  
    4.34000n      2.9666m    747.6131m  
    4.35000n      2.9644m    747.6115m  
    4.36000n      2.9623m    747.6098m  
    4.37000n      2.9602m    747.6082m  
    4.38000n      2.9583m    747.6067m  
    4.39000n      2.9592m    747.6074m  
    4.40000n      2.9601m    747.6081m  
    4.41000n      2.9610m    747.6089m  
    4.42000n      2.9619m    747.6096m  
    4.43000n      2.9628m    747.6103m  
    4.44000n      2.9637m    747.6110m  
    4.45000n      2.9646m    747.6117m  
    4.46000n      2.9656m    747.6124m  
    4.47000n      2.9665m    747.6131m  
    4.48000n      2.9674m    747.6138m  
    4.49000n      2.9683m    747.6145m  
    4.50000n      2.9692m    747.6152m  
    4.51000n      2.9701m    747.6159m  
    4.52000n      2.9710m    747.6166m  
    4.53000n      2.9719m    747.6173m  
    4.54000n      2.9728m    747.6180m  
    4.55000n      2.9737m    747.6187m  
    4.56000n      2.9746m    747.6194m  
    4.57000n      2.9755m    747.6201m  
    4.58000n      2.9765m    747.6208m  
    4.59000n      2.9774m    747.6215m  
    4.60000n      2.9783m    747.6222m  
    4.61000n      2.9792m    747.6229m  
    4.62000n      2.9801m    747.6236m  
    4.63000n      2.9810m    747.6243m  
    4.64000n      2.9819m    747.6250m  
    4.65000n      2.9828m    747.6257m  
    4.66000n      2.9837m    747.6264m  
    4.67000n      2.9846m    747.6271m  
    4.68000n      2.9855m    747.6278m  
    4.69000n      2.9864m    747.6285m  
    4.70000n      2.9873m    747.6292m  
    4.71000n      2.9883m    747.6299m  
    4.72000n      2.9892m    747.6306m  
    4.73000n      2.9901m    747.6313m  
    4.74000n      2.9910m    747.6320m  
    4.75000n      2.9919m    747.6327m  
    4.76000n      2.9919m    747.6327m  
    4.77000n      2.9908m    747.6318m  
    4.78000n      2.9896m    747.6309m  
    4.79000n      2.9884m    747.6300m  
    4.80000n      2.9873m    747.6291m  
    4.81000n      2.9861m    747.6282m  
    4.82000n      2.9850m    747.6273m  
    4.83000n      2.9838m    747.6264m  
    4.84000n      2.9826m    747.6255m  
    4.85000n      2.9815m    747.6246m  
    4.86000n      2.9803m    747.6237m  
    4.87000n      2.9792m    747.6228m  
    4.88000n      2.9780m    747.6219m  
    4.89000n      2.9768m    747.6210m  
    4.90000n      2.9757m    747.6201m  
    4.91000n      2.9745m    747.6192m  
    4.92000n      2.9734m    747.6183m  
    4.93000n      2.9722m    747.6174m  
    4.94000n      2.9710m    747.6165m  
    4.95000n      2.9699m    747.6156m  
    4.96000n      2.9687m    747.6147m  
    4.97000n      2.9676m    747.6138m  
    4.98000n      2.9664m    747.6129m  
    4.99000n      2.9653m    747.6120m  
    5.00000n      2.9641m    747.6111m  
    5.01000n      2.9629m    747.6102m  
    5.02000n      2.9618m    747.6093m  
    5.03000n      2.9606m    747.6084m  
    5.04000n      2.9595m    747.6075m  
    5.05000n      2.9583m    747.6066m  
    5.06000n      2.9753m    747.6199m  
    5.07000n      2.9753m    747.6198m  
    5.08000n      2.9753m    747.6199m  
    5.09000n      2.9753m    747.6199m  
    5.10000n      2.9753m    747.6199m  
    5.11000n      2.9753m    747.6199m  
    5.12000n      2.9753m    747.6199m  
    5.13000n      2.9753m    747.6199m  
    5.14000n      2.9753m    747.6199m  
    5.15000n      2.9753m    747.6199m  
    5.16000n      2.9753m    747.6199m  
    5.17000n      2.9753m    747.6199m  
    5.18000n      2.9753m    747.6199m  
    5.19000n      2.9753m    747.6199m  
    5.20000n      2.9753m    747.6199m  
    5.21000n      2.9753m    747.6199m  
    5.22000n      2.9753m    747.6199m  
    5.23000n      2.9753m    747.6199m  
    5.24000n      2.9753m    747.6199m  
    5.25000n      2.9753m    747.6199m  
    5.26000n      2.9753m    747.6199m  
    5.27000n      2.9753m    747.6199m  
    5.28000n      2.9753m    747.6199m  
    5.29000n      2.9753m    747.6199m  
    5.30000n      2.9753m    747.6199m  
    5.31000n      2.9753m    747.6199m  
    5.32000n      2.9753m    747.6199m  
    5.33000n      2.9753m    747.6199m  
    5.34000n      2.9753m    747.6199m  
    5.35000n      2.9753m    747.6199m  
    5.36000n      2.9753m    747.6199m  
    5.37000n      2.9753m    747.6199m  
    5.38000n      2.9753m    747.6199m  
    5.39000n      2.9753m    747.6199m  
    5.40000n      2.9753m    747.6199m  
    5.41000n      2.9753m    747.6199m  
    5.42000n      2.9753m    747.6199m  
    5.43000n      2.9753m    747.6199m  
    5.44000n      2.9753m    747.6199m  
    5.45000n      2.9753m    747.6199m  
    5.46000n      2.9753m    747.6199m  
    5.47000n      2.9753m    747.6199m  
    5.48000n      2.9753m    747.6199m  
    5.49000n      2.9753m    747.6199m  
    5.50000n      2.9753m    747.6199m  
    5.51000n      2.9753m    747.6199m  
    5.52000n      2.9753m    747.6199m  
    5.53000n      2.9753m    747.6199m  
    5.54000n      2.9753m    747.6199m  
    5.55000n      2.9753m    747.6199m  
    5.56000n      2.9753m    747.6199m  
    5.57000n      2.9753m    747.6199m  
    5.58000n      2.9753m    747.6199m  
    5.59000n      2.9753m    747.6199m  
    5.60000n      2.9753m    747.6199m  
    5.61000n      2.9753m    747.6199m  
    5.62000n      2.9753m    747.6199m  
    5.63000n      2.9753m    747.6199m  
    5.64000n      2.9753m    747.6199m  
    5.65000n      2.9753m    747.6199m  
    5.66000n      2.9753m    747.6199m  
    5.67000n      2.9753m    747.6199m  
    5.68000n      2.9753m    747.6199m  
    5.69000n      2.9753m    747.6199m  
    5.70000n      2.9753m    747.6199m  
    5.71000n      2.9753m    747.6199m  
    5.72000n      2.9753m    747.6199m  
    5.73000n      2.9753m    747.6199m  
    5.74000n      2.9753m    747.6199m  
    5.75000n      2.9753m    747.6199m  
    5.76000n      2.9753m    747.6199m  
    5.77000n      2.9753m    747.6199m  
    5.78000n      2.9753m    747.6199m  
    5.79000n      2.9753m    747.6199m  
    5.80000n      2.9753m    747.6199m  
    5.81000n      2.9753m    747.6199m  
    5.82000n      2.9753m    747.6199m  
    5.83000n      2.9753m    747.6199m  
    5.84000n      2.9753m    747.6199m  
    5.85000n      2.9753m    747.6199m  
    5.86000n      2.9753m    747.6199m  
    5.87000n      2.9753m    747.6199m  
    5.88000n      2.9753m    747.6199m  
    5.89000n      2.9753m    747.6199m  
    5.90000n      2.9753m    747.6199m  
    5.91000n      2.9753m    747.6199m  
    5.92000n      2.9753m    747.6199m  
    5.93000n      2.9753m    747.6199m  
    5.94000n      2.9753m    747.6199m  
    5.95000n      2.9753m    747.6199m  
    5.96000n      2.9753m    747.6199m  
    5.97000n      2.9753m    747.6199m  
    5.98000n      2.9753m    747.6199m  
    5.99000n      2.9753m    747.6199m  
    6.00000n      2.9753m    747.6199m  
    6.01000n      2.9753m    747.6199m  
    6.02000n      2.9753m    747.6199m  
    6.03000n      2.9753m    747.6199m  
    6.04000n      2.9753m    747.6199m  
    6.05000n      2.9753m    747.6199m  
    6.06000n      2.9753m    747.6199m  
    6.07000n      2.9753m    747.6199m  
    6.08000n      2.9753m    747.6199m  
    6.09000n      2.9753m    747.6199m  
    6.10000n      2.9753m    747.6199m  
    6.11000n      2.9753m    747.6199m  
    6.12000n      2.9753m    747.6199m  
    6.13000n      2.9753m    747.6199m  
    6.14000n      2.9753m    747.6199m  
    6.15000n      2.9753m    747.6199m  
    6.16000n      2.9753m    747.6199m  
    6.17000n      2.9753m    747.6199m  
    6.18000n      2.9753m    747.6199m  
    6.19000n      2.9753m    747.6199m  
    6.20000n      2.9753m    747.6199m  
    6.21000n      2.9753m    747.6199m  
    6.22000n      2.9753m    747.6199m  
    6.23000n      2.9753m    747.6199m  
    6.24000n      2.9753m    747.6199m  
    6.25000n      2.9753m    747.6199m  
    6.26000n      2.9753m    747.6199m  
    6.27000n      2.9753m    747.6199m  
    6.28000n      2.9753m    747.6199m  
    6.29000n      2.9753m    747.6199m  
    6.30000n      2.9753m    747.6199m  
    6.31000n      2.9753m    747.6199m  
    6.32000n      2.9753m    747.6199m  
    6.33000n      2.9753m    747.6199m  
    6.34000n      2.9753m    747.6199m  
    6.35000n      2.9753m    747.6199m  
    6.36000n      2.9753m    747.6199m  
    6.37000n      2.9753m    747.6199m  
    6.38000n      2.9753m    747.6199m  
    6.39000n      2.9753m    747.6199m  
    6.40000n      2.9753m    747.6199m  
    6.41000n      2.9753m    747.6199m  
    6.42000n      2.9753m    747.6199m  
    6.43000n      2.9753m    747.6199m  
    6.44000n      2.9753m    747.6199m  
    6.45000n      2.9753m    747.6199m  
    6.46000n      2.9753m    747.6199m  
    6.47000n      2.9753m    747.6199m  
    6.48000n      2.9753m    747.6199m  
    6.49000n      2.9753m    747.6199m  
    6.50000n      2.9753m    747.6199m  
    6.51000n      2.9753m    747.6199m  
    6.52000n      2.9753m    747.6199m  
    6.53000n      2.9753m    747.6199m  
    6.54000n      2.9753m    747.6199m  
    6.55000n      2.9753m    747.6199m  
    6.56000n      2.9753m    747.6199m  
    6.57000n      2.9753m    747.6199m  
    6.58000n      2.9753m    747.6199m  
    6.59000n      2.9753m    747.6199m  
    6.60000n      2.9753m    747.6199m  
    6.61000n      2.9753m    747.6199m  
    6.62000n      2.9753m    747.6199m  
    6.63000n      2.9753m    747.6199m  
    6.64000n      2.9753m    747.6199m  
    6.65000n      2.9753m    747.6199m  
    6.66000n      2.9753m    747.6199m  
    6.67000n      2.9753m    747.6199m  
    6.68000n      2.9753m    747.6199m  
    6.69000n      2.9753m    747.6199m  
    6.70000n      2.9753m    747.6199m  
    6.71000n      2.9753m    747.6199m  
    6.72000n      2.9753m    747.6199m  
    6.73000n      2.9753m    747.6199m  
    6.74000n      2.9753m    747.6199m  
    6.75000n      2.9753m    747.6199m  
    6.76000n      2.9753m    747.6199m  
    6.77000n      2.9753m    747.6199m  
    6.78000n      2.9753m    747.6199m  
    6.79000n      2.9753m    747.6199m  
    6.80000n      2.9753m    747.6199m  
    6.81000n      2.9753m    747.6199m  
    6.82000n      2.9753m    747.6199m  
    6.83000n      2.9753m    747.6199m  
    6.84000n      2.9753m    747.6199m  
    6.85000n      2.9753m    747.6199m  
    6.86000n      2.9753m    747.6199m  
    6.87000n      2.9753m    747.6199m  
    6.88000n      2.9753m    747.6199m  
    6.89000n      2.9753m    747.6199m  
    6.90000n      2.9753m    747.6199m  
    6.91000n      2.9753m    747.6199m  
    6.92000n      2.9753m    747.6199m  
    6.93000n      2.9753m    747.6199m  
    6.94000n      2.9753m    747.6199m  
    6.95000n      2.9753m    747.6199m  
    6.96000n      2.9753m    747.6199m  
    6.97000n      2.9753m    747.6199m  
    6.98000n      2.9753m    747.6199m  
    6.99000n      2.9753m    747.6199m  
    7.00000n      2.9753m    747.6199m  
    7.01000n      2.9753m    747.6199m  
    7.02000n      2.9753m    747.6199m  
    7.03000n      2.9753m    747.6199m  
    7.04000n      2.9753m    747.6199m  
    7.05000n      2.9753m    747.6199m  
    7.06000n      2.9753m    747.6199m  
    7.07000n      2.9753m    747.6199m  
    7.08000n      2.9753m    747.6199m  
    7.09000n      2.9753m    747.6199m  
    7.10000n      2.9753m    747.6199m  
    7.11000n      2.9753m    747.6199m  
    7.12000n      2.9753m    747.6199m  
    7.13000n      2.9753m    747.6199m  
    7.14000n      2.9753m    747.6199m  
    7.15000n      2.9753m    747.6199m  
    7.16000n      2.9753m    747.6199m  
    7.17000n      2.9753m    747.6199m  
    7.18000n      2.9753m    747.6199m  
    7.19000n      2.9753m    747.6199m  
    7.20000n      2.9753m    747.6199m  
    7.21000n      2.9753m    747.6199m  
    7.22000n      2.9753m    747.6199m  
    7.23000n      2.9753m    747.6199m  
    7.24000n      2.9753m    747.6199m  
    7.25000n      2.9753m    747.6199m  
    7.26000n      2.9753m    747.6199m  
    7.27000n      2.9753m    747.6199m  
    7.28000n      2.9753m    747.6199m  
    7.29000n      2.9753m    747.6199m  
    7.30000n      2.9753m    747.6199m  
    7.31000n      2.9753m    747.6199m  
    7.32000n      2.9753m    747.6199m  
    7.33000n      2.9753m    747.6199m  
    7.34000n      2.9753m    747.6199m  
    7.35000n      2.9753m    747.6199m  
    7.36000n      2.9753m    747.6199m  
    7.37000n      2.9753m    747.6199m  
    7.38000n      2.9753m    747.6199m  
    7.39000n      2.9753m    747.6199m  
    7.40000n      2.9753m    747.6199m  
    7.41000n      2.9753m    747.6199m  
    7.42000n      2.9753m    747.6199m  
    7.43000n      2.9753m    747.6199m  
    7.44000n      2.9753m    747.6199m  
    7.45000n      2.9753m    747.6199m  
    7.46000n      2.9753m    747.6199m  
    7.47000n      2.9753m    747.6199m  
    7.48000n      2.9753m    747.6199m  
    7.49000n      2.9753m    747.6199m  
    7.50000n      2.9753m    747.6199m  
    7.51000n      2.9753m    747.6199m  
    7.52000n      2.9753m    747.6199m  
    7.53000n      2.9753m    747.6199m  
    7.54000n      2.9753m    747.6199m  
    7.55000n      2.9753m    747.6199m  
    7.56000n      2.9753m    747.6199m  
    7.57000n      2.9753m    747.6199m  
    7.58000n      2.9753m    747.6199m  
    7.59000n      2.9753m    747.6199m  
    7.60000n      2.9753m    747.6199m  
    7.61000n      2.9753m    747.6199m  
    7.62000n      2.9753m    747.6199m  
    7.63000n      2.9753m    747.6199m  
    7.64000n      2.9753m    747.6199m  
    7.65000n      2.9753m    747.6199m  
    7.66000n      2.9753m    747.6199m  
    7.67000n      2.9753m    747.6199m  
    7.68000n      2.9753m    747.6199m  
    7.69000n      2.9753m    747.6199m  
    7.70000n      2.9753m    747.6199m  
    7.71000n      2.9753m    747.6199m  
    7.72000n      2.9753m    747.6199m  
    7.73000n      2.9753m    747.6199m  
    7.74000n      2.9753m    747.6199m  
    7.75000n      2.9753m    747.6199m  
    7.76000n      2.9753m    747.6199m  
    7.77000n      2.9753m    747.6199m  
    7.78000n      2.9753m    747.6199m  
    7.79000n      2.9753m    747.6199m  
    7.80000n      2.9753m    747.6199m  
    7.81000n      2.9753m    747.6199m  
    7.82000n      2.9753m    747.6199m  
    7.83000n      2.9753m    747.6199m  
    7.84000n      2.9753m    747.6199m  
    7.85000n      2.9753m    747.6199m  
    7.86000n      2.9753m    747.6199m  
    7.87000n      2.9753m    747.6199m  
    7.88000n      2.9753m    747.6199m  
    7.89000n      2.9753m    747.6199m  
    7.90000n      2.9753m    747.6199m  
    7.91000n      2.9753m    747.6199m  
    7.92000n      2.9753m    747.6199m  
    7.93000n      2.9753m    747.6199m  
    7.94000n      2.9753m    747.6199m  
    7.95000n      2.9753m    747.6199m  
    7.96000n      2.9753m    747.6199m  
    7.97000n      2.9753m    747.6199m  
    7.98000n      2.9753m    747.6199m  
    7.99000n      2.9753m    747.6199m  
    8.00000n      2.9753m    747.6199m  
y
 inv_avg_power00=   1.4320u  from=   0.          to=   8.0000n
 peakpower00= 346.1312u    at=   7.0939n
             from=   0.         to=   8.0000n
 power_avg=  21.7026u  from=   0.          to=   8.0000n
 avg_power= 378.7932g  from=   0.          to=   8.0000n

          ***** job concluded
1****** HSPICE -- F-2011.09-SP2 64-BIT (Feb 27 2012) linux ******               
 ******  
 $this uut was automatically generated by:

  ******  job statistics summary tnom=  25.000 temp=  25.000 *****
  
  
 ******  Machine Information  ******
 CPU:
 model name	: Intel(R) Xeon(R) CPU E5-2650 v4 @ 2.20GHz
 cpu MHz	: 2590.671
  
 OS:
 Linux version 3.10.0-693.17.1.el7.x86_64 (mockbuild@x86-041.build.eng.bos.redha
 t.com) (gcc version 4.8.5 20150623 (Red Hat 4.8.5-16) (GCC) ) #1 SMP Sun Jan 14
  10:36:03 EST 2018


  ******  HSPICE Threads Information  ******

  Command Line Threads Count :     1
  Available CPU Count        :    24
  Actual Threads Count       :     1


  ******  Circuit Statistics  ******
  # nodes       =      83 # elements   =      34
  # resistors   =       0 # capacitors =       0 # inductors   =       0
  # mutual_inds =       0 # vccs       =       0 # vcvs        =       0
  # cccs        =       0 # ccvs       =       0 # volt_srcs   =       4
  # curr_srcs   =       0 # diodes     =       0 # bjts        =       0
  # jfets       =       0 # mosfets    =      30 # U elements  =       0
  # T elements  =       0 # W elements =       0 # B elements  =       0
  # S elements  =       0 # P elements =       0 # va device   =       0
  # vector_srcs =       0


  ******  Runtime Statistics (seconds)  ******

  analysis           time    # points   tot. iter  conv.iter
  op point           0.03           1         112
  transient          0.18         801        1688         308 rev=        22
  readin             0.01
  errchk             0.00
  setup              0.00
  output             0.01


           peak memory used        135.46 megabytes
           total cpu time            0.23 seconds
           total elapsed time        0.48 seconds
           job started at     18:49:37 09/11/2020
           job ended   at     18:49:37 09/11/2020


 lic: Release hspice token(s) 
