***** HSPICE -- F-2011.09-SP2 64-BIT (Feb 27 2012) linux ******
 Input File: ptm16hp.sp
 lic:
 lic: FLEXlm: v10.8
 lic: USER:   iliabautista         HOSTNAME: itn3.rc.usf.edu
 lic: HOSTID:                      PID:      5042
 lic: Using FLEXlm license file:
 lic: 27000@license0.rc.usf.edu
 lic: Checkout 1 hspice
 lic: License/Maintenance for hspice will expire on 18-jul-2021/2019.06
 lic: 1(in_use)/50(total) FLOATING license(s) on SERVER license0.rc.usf.edu
 lic:
 init: begin read circuit files,  cpu clock=  2.00E-02
       option post     =     2.00
 init: end read circuit files,  cpu clock=  3.00E-02 memory=       156 kb
 init: begin check errors,  cpu clock=  3.00E-02
 **warning**  No DC path to ground from node        0:                outin_30
 init: end check errors,  cpu clock=  3.00E-02 memory=       288 kb
 init: begin setup matrix, pivot=     0 cpu clock=  3.00E-02
       establish matrix -- done,  cpu clock=  3.00E-02 memory=       317 kb
       re-order matrix -- done,  cpu clock=  3.00E-02 memory=       312 kb
 init: end setup matrix,  cpu clock=  3.00E-02 memory=       367 kb
 dcop: begin dcop,  cpu clock=  3.00E-02
 dcop: end dcop,  cpu clock=  4.00E-02 memory=       367 kb  tot_iter=      62
 output: ptm16hp.mt0
 sweep: tran tran0    begin, stop_t=  4.00E-09 #sweeps= 401 cpu clock=  4.00E-02
 tran: time= 4.2040E-10 tot_iter=     399 conv_iter=      38 cpu clock= 9.00E-02
 tran: time= 8.2040E-10 tot_iter=     403 conv_iter=      40 cpu clock= 9.00E-02
 tran: time= 1.3113E-09 tot_iter=     549 conv_iter=      65 cpu clock= 1.00E-01
 tran: time= 1.7113E-09 tot_iter=     553 conv_iter=      67 cpu clock= 1.00E-01
 tran: time= 2.0000E-09 tot_iter=     557 conv_iter=      69 cpu clock= 1.00E-01
 tran: time= 2.4688E-09 tot_iter=     916 conv_iter=     113 cpu clock= 1.20E-01
 tran: time= 2.8688E-09 tot_iter=     920 conv_iter=     115 cpu clock= 1.20E-01
 tran: time= 3.2501E-09 tot_iter=    1191 conv_iter=     148 cpu clock= 1.40E-01
 tran: time= 3.6501E-09 tot_iter=    1195 conv_iter=     150 cpu clock= 1.40E-01
 tran: time= 4.0000E-09 tot_iter=    1199 conv_iter=     152 cpu clock= 1.40E-01
 sweep: tran tran0    end,  cpu clock=  1.40E-01 memory=       368 kb
>info:         ***** hspice job concluded
 lic: Release hspice token(s)
