***** HSPICE -- F-2011.09-SP2 64-BIT (Feb 27 2012) linux ******
 Input File: ptm14hp.sp
 lic:
 lic: FLEXlm: v10.8
 lic: USER:   iliabautista         HOSTNAME: itn1.rc.usf.edu
 lic: HOSTID:                      PID:      106156
 lic: Using FLEXlm license file:
 lic: 27000@license0.rc.usf.edu
 lic: Checkout 1 hspice
 lic: License/Maintenance for hspice will expire on 18-jul-2021/2019.06
 lic: 1(in_use)/50(total) FLOATING license(s) on SERVER license0.rc.usf.edu
 lic:
 init: begin read circuit files,  cpu clock=  2.00E-02
       option post     =     2.00
 init: end read circuit files,  cpu clock=  2.00E-02 memory=       156 kb
 init: begin check errors,  cpu clock=  2.00E-02
 init: end check errors,  cpu clock=  4.00E-02 memory=       157 kb
 init: begin setup matrix, pivot=     0 cpu clock=  4.00E-02
       establish matrix -- done,  cpu clock=  4.00E-02 memory=       178 kb
       re-order matrix -- done,  cpu clock=  4.00E-02 memory=       174 kb
 init: end setup matrix,  cpu clock=  4.00E-02 memory=       217 kb
 dcop: begin dcop,  cpu clock=  4.00E-02
 dcop: end dcop,  cpu clock=  4.00E-02 memory=       217 kb  tot_iter=       5
 output: ptm14hp.mt0
 sweep: tran tran0    begin, stop_t=  8.00E-09 #sweeps= 801 cpu clock=  4.00E-02
 tran: time= 1.0500E-09 tot_iter=     102 conv_iter=      27 cpu clock= 5.00E-02
 tran: time= 1.8163E-09 tot_iter=     389 conv_iter=      63 cpu clock= 8.00E-02
 tran: time= 2.4535E-09 tot_iter=     485 conv_iter=      87 cpu clock= 9.00E-02
 tran: time= 3.2447E-09 tot_iter=     571 conv_iter=     109 cpu clock= 1.00E-01
 tran: time= 4.0000E-09 tot_iter=     577 conv_iter=     112 cpu clock= 1.00E-01
 tran: time= 4.8517E-09 tot_iter=     673 conv_iter=     136 cpu clock= 1.20E-01
 tran: time= 5.7546E-09 tot_iter=     757 conv_iter=     159 cpu clock= 1.20E-01
 tran: time= 6.6634E-09 tot_iter=     859 conv_iter=     184 cpu clock= 1.40E-01
 tran: time= 7.2057E-09 tot_iter=    1451 conv_iter=     224 cpu clock= 2.00E-01
 tran: time= 8.0000E-09 tot_iter=    1707 conv_iter=     260 cpu clock= 2.30E-01
 sweep: tran tran0    end,  cpu clock=  2.30E-01 memory=       217 kb
>info:         ***** hspice job concluded
 lic: Release hspice token(s)
