$DATA1 SOURCE='HSPICE' VERSION='F-2011.09-SP2 64-BIT'
.TITLE '$this uut was automatically generated by:'
 power_avg        avg_power        inv_avg_power    peakpower         
 trf_delay_1      tfr_delay_1      trf_delay_2      tfr_delay_2       
 temper           alter#            
  3.863e-07       -3.250e-07        2.179e-07        2.501e-05        
  8.472e-12        7.356e-12        7.431e-12        1.261e-11        
   25.0000        1                 
