$DATA1 SOURCE='HSPICE' VERSION='F-2011.09-SP2 64-BIT'
.TITLE '$this uut was automatically generated by:'
 inv_avg_power0   peakpower0       trf_delay_01     tfr_delay_01      
 trf_delay_02     tfr_delay_02     trf_delay_03     tfr_delay_03      
 trf_delay_04     tfr_delay_04     inv_avg_power1   peakpower1        
 trf_delay_11     tfr_delay_11     trf_delay_12     tfr_delay_12      
 inv_avg_power2   peakpower2       trf_delay_21     tfr_delay_21      
 power_avg        avg_power        temper           alter#            
  2.912e-05        1.419e-03        4.383e-12        5.018e-12        
  1.475e-10        2.315e-10        8.516e-10        1.763e-09        
  2.004e-09        2.006e-09        7.642e-06        1.165e-03        
  4.383e-12        4.925e-12        1.946e-09        3.993e-09        
  7.631e-06        1.165e-03        4.383e-12        5.114e-12        
  7.269e-05        5.183e+14         25.0000        1                 
