 ****** HSPICE -- F-2011.09-SP2 64-BIT (Feb 27 2012) linux ******               
  Copyright (C) 2011 Synopsys, Inc. All Rights Reserved.                        
  Unpublished-rights reserved under US copyright laws.
  This program is protected by law and is subject to the
  terms and conditions of the license agreement from Synopsys.
  Use of this program is your acceptance to be bound by the
  license agreement. HSPICE is the trademark of Synopsys, Inc.
  Input File: ptm16lstp.sp                                                      
  Command line options: ptm16lstp.sp
 lic:  
 lic: FLEXlm: v10.8 
 lic: USER:   iliabautista         HOSTNAME: itn3.rc.usf.edu 
 lic: HOSTID:                      PID:      5070 
 lic: Using FLEXlm license file: 
 lic: 27000@license0.rc.usf.edu 
 lic: Checkout 1 hspice 
 lic: License/Maintenance for hspice will expire on 18-jul-2021/2019.06 
 lic: 1(in_use)/50(total) FLOATING license(s) on SERVER license0.rc.usf.edu 
 lic:   
  **warning** (../modelfiles/lstp/16nfet.pm:4) Model nfet device geometries will not be checked against the limits set by lmin, lmax, nfinmin and nfinmax. To enable this check, add a period(.) to the model name(i.e. enable model selector).
1****** HSPICE -- F-2011.09-SP2 64-BIT (Feb 27 2012) linux ******               
 ******  
 $this uut was automatically generated by:

  ******  circuit name directory
 circuit number to circuit name directory
   number circuitname                     definition         multiplier
        0 main circuit
        1 xinput_0.                       inverter           1.00 
        2 xinput_1.                       inverter           1.00 
        3 xuut_grid.                      uut_grid           1.00 
        4 xoutput_00.                     inverter           1.00 
        5 xoutput_10.                     inverter           1.00 
        6 xinput_0.xpfet.                 pfet               1.00 
        7 xinput_0.xnfet.                 nfet               1.00 
        8 xinput_1.xpfet.                 pfet               1.00 
        9 xinput_1.xnfet.                 nfet               1.00 
       10 xuut_grid.xinverter00.          inverter           1.00 
       11 xuut_grid.xinverter10.          inverter           1.00 
       12 xuut_grid.xinverter01.          inverter           1.00 
       13 xuut_grid.xinverter11.          inverter           1.00 
       14 xoutput_00.xpfet.               pfet               1.00 
       15 xoutput_00.xnfet.               nfet               1.00 
       16 xoutput_10.xpfet.               pfet               1.00 
       17 xoutput_10.xnfet.               nfet               1.00 
       18 xuut_grid.xinverter00.xpfet.    pfet               1.00 
       19 xuut_grid.xinverter00.xnfet.    nfet               1.00 
       20 xuut_grid.xinverter10.xpfet.    pfet               1.00 
       21 xuut_grid.xinverter10.xnfet.    nfet               1.00 
       22 xuut_grid.xinverter01.xpfet.    pfet               1.00 
       23 xuut_grid.xinverter01.xnfet.    nfet               1.00 
       24 xuut_grid.xinverter11.xpfet.    pfet               1.00 
       25 xuut_grid.xinverter11.xnfet.    nfet               1.00 
1****** HSPICE -- F-2011.09-SP2 64-BIT (Feb 27 2012) linux ******               
 ******  
 $this uut was automatically generated by:

  ******  mos   model parameters tnom=  25.000 temp=  25.000 *****
 Model Name: pfet 
 BSIM-MG BULK Model(Level72)
   VERSION = 105.03  
   DEVTYPE = -1 
   BULKMOD = 1  
   COREMOD = 0 
   GEOMOD = 1 
   RDSMOD = 1 
   IGCMOD = 1 
   IGBMOD = 1 
   GIDLMOD = 0 
   IIMOD = 0 
   NQSMOD = 0 
   SHMOD = 0 
   RGATEMOD = 0 
   RGEOMOD = 1 
   CGEOMOD = 2 
   CAPMOD = 0 
   LINT = -1e-09 m
   LL =      0 m^(LLN+1)
   LLN =      1 
   DLC =      0 m
   DLBIN =      0 
   LLC =      0 m^(LLN+1)
   EOT =  1e-09 m
   TOXP = 1.35e-09 m
   EOTBOX = 1.4e-07 m
   HFIN = 2.6e-08 m
   FECH =      1 
   DELTAW =      0 m
   FECHCV =      1 
   DELTAWCV =      0 m
   NBODY =  1e+23 m^-3
   NSD =  3e+26 m^-3
   PHIG =  4.588 eV
   EPSROX =    3.9 
   EPSRSUB =   11.9 
   EASUB =   4.05 eV
   NI0SUB = 1.1e+16 m^-3
   BG0SUB =   1.12 eV
   NC0SUB = 2.86e+25 m^-3
   NGATE =      0 m^-3
   CIT = 1.3e-05 F/m^2
   CDSC =  0.021 F/m^2
   CDSCD =  0.007 F/m^2
   CDSCDR =  0.007 
   DVT0 =   0.01 
   DVT1 =   0.69 
   PHIN =   0.05 V
   ETA0 = 0.9925 
   ETA0R = 0.9925 
   DSUB =    0.9 
   K1RSCE =      0 V^1/2
   LPE0 =  5e-09 m
   DVTSHIFT =      0 
   QMFACTOR =      0 
   QMTCENIV =      0 
   QMTCENCV =      0 
   AQMTCEN =      0 
   BQMTCEN = 1.2e-08 
   ETAQM =   0.54 
   QM0 = 0.001143 
   PQM =   0.66 
   QM0ACC =  0.001 
   PQMACC =   0.66 
   VSAT = 8.8e+04 
   AVSAT =      0 
   BVSAT =  1e-07 
   VSAT1 = 8.8e+04 
   AVSAT1 =      0 
   BVSAT1 =  1e-07 
   DELTAVSAT =      1 
   KSATIV =    0.8 
   MEXP =      3 
   AMEXP =      0 
   BMEXP =      1 
   PTWG =      0 
   APTWG =      0 
   BPTWG =  1e-07 
   AT = -0.00156 
   TMEXP =      0 
   PTWGT =  0.004 
   U0 =   0.03 
   ETAMOB =      2 
   UP =      0 
   LPA =      1 
   UA =    0.3 
   AUA =      0 
   BUA =  1e-07 
   EU =    1.8 
   AEU =      0 
   BEU =  1e-07 
   UD =      0 
   AUD =      0 
   BUD =  5e-08 
   UCS =      0 
   UTE =      0 
   UTL = -0.0015 
   UA1 = 0.001032 
   UD1 =      0 
   UCSTE = -0.00478 
   RDSWMIN =      0 
   RDSW =    100 
   ARDSW =      0 
   BRDSW =  1e-07 
   RSWMIN =      0 
   RSW =      0 
   ARSW =      0 
   BRSW =  1e-07 
   RDWMIN =      0 
   RDW =      0 
   ARDW =      0 
   BRDW =  1e-07 
   PRWG =      0 
   WR =      1 
   PRT =  0.001 
   PDIBL1 =    1.3 
   PDIBL2 = 0.0002 
   DROUT =   1.06 
   PVAG =      1 
   PCLM =    0.2 
   APCLM =      0 
   BPCLM =  1e-07 
   PCLMG =      0 
   VASAT =    0.6 
   PCLMCV =  0.013 
   PCLMGCV =      0 
   VASATCV =    0.2 
   RGEXT =      0 ohm
   RGFIN =  0.001 ohm
   RSHS =      0 ohm
   RSHD =      0 ohm
   HEPI = 9.5e-09 m
   TSILI =  9e-09 m
   RHOC =  2e-12 ohm/m^2
   RHORSD =      1 ohm/m
   RHOEXT =      1 ohm/m
   CRATIO =    0.5 
   DELTAPRSD =      0 m
   SDTERM = 0 
   LSP =  4e-09 m
   LDG =  3e-09 m
   EPSRSP =    3.9 
   TGATE =  9e-09 m
   TMASK =      0 m
   ASILIEND =      0 m^2
   ARSDEND =      0 m^2
   PRSDEND =      0 m
   NSDE =  3e+25 m^-3
   RGEOA =      1 
   RGEOB =      0 m^-1
   RGEOC =      0 m^-1
   RGEOD =      0 m^-1
   RGEOE =      0 m^-1
   CGEOA =      1 
   CGEOB =      0 m^-1
   CGEOC =      0 m^-1
   CGEOD =      0 m^-1
   CGEOE =      1 
   AIGBINV = 0.0111 (Fs^2/g)^0.5m^-1
   BIGBINV =   0.03 (Fs^2/g)^0.5m^-1
   CIGBINV =  0.006 V^-1
   EIGBINV =    1.1 V
   NIGBINV =    1.2 
   AIGBACC = 0.0149 
   BIGBACC = 0.000949 
   CIGBACC =  0.075 
   NIGBACC =      3 
   AIGC = 0.0136 (Fs^2/g)^0.5m^-1
   BIGC = 0.00171 (Fs^2/g)^0.5m^-1V^-1
   CIGC =  0.075 V^-1
   NIGC =      1 
   DLCIGS =      0 m
   AIGS = 0.0136 (Fs^2/g)^0.5m^-1
   BIGS = 0.00171 (Fs^2/g)^0.5m^-1V^-1
   CIGS =  0.075 V^-1
   DLCIGD =      0 m
   AIGD = 0.0136 (Fs^2/g)^0.5m^-1
   BIGD = 0.00171 (Fs^2/g)^0.5m^-1V^-1
   CIGD =  0.075 V^-1
   POXEDGE =      1 
   AGIDL = 5.729e-12 ohm^-1
   BGIDL =  3e+08 V/m
   EGIDL =    0.1 V
   AGISL = 5.729e-12 ohm^-1
   BGISL =  3e+08 V/m
   EGISL =    0.1 V
   ALPHA0 =      0 mV^-1
   ALPHA1 =      0 V^-1
   BETA0 =     30 V^-1
   ALPHAII =      0 
   BETAII0 =      0 V^-1
   BETAII1 =      0 
   BETAII2 =    0.1 V
   ESATII =  1e+07 V/m
   LII =  5e-10 V/m
   SII0 =    0.5 V^-1
   SII1 =    0.1 
   SII2 =      0 V
   SIID =      0 V
   EOTACC =  1e-09 m
   DELVFBACC =      0 V
   CFS = 2.56e-11 F/m
   CFD = 2.65e-11 F/m
   COVS = 2.5e-11 F/m
   COVD = 2.5e-11 F/m
   CGSO =      0 F/m
   CGDO =      0 F/m
   CGSL =      0 F/m
   CGDL =      0 F/m
   CKAPPAS =    0.6 V
   CKAPPAD =    0.6 V
   CGBO =      0 F/m
   CGBL =      0 F/m
   CKAPPAB =    0.6 V
   CSDESW =      0 F/m
   CJS = 0.0005 F/m^2
   CJD = 0.0005 F/m^2
   CJSWS =  5e-10 F/m
   CJSWD =  5e-10 F/m
   CJSWGS =      0 F/m
   CJSWGD =      0 F/m
   PBS =      1 V
   PBD =      1 V
   PBSWS =      1 V
   PBSWD =      1 V
   PBSWGS =      1 V
   PBSWGD =      1 V
   MJS, =    0.5 
   MJD =    0.5 
   MJSWS =   0.33 
   MJSWD =   0.33 
   MJSWGS =   0.33 
   MJSWGD =   0.33 
   SJS =      0 
   SJD =      0 
   SJSWS =      0 
   SJSWD =      0 
   SJSWGS =      0 
   SJSWGD =      0 
   MJS2 =  0.125 
   MJD2 =  0.125 
   MJSWS2 =   0.33 
   MJSWD2 =   0.33 
   MJSWGS2 =   0.33 
   MJSWGD2 =   0.33 
   JSS = 0.0001 A/m^2
   JSD = 0.0001 A/m^2
   JSWS =      0 A/m
   JSWD =      0 A/m
   JSWGS =      0 A/m
   JSWGD =      0 A/m
   NJS =      1 
   NJD =      1 
   IJTHSFWD =    0.1 A
   IJTHDFWD =    0.1 A
   IJTHSREV =    0.1 A
   IJTHDREV =    0.1 A
   BVS =     10 V
   BVD =     10 V
   XJBVS =      1 
   XJBVD =      1 
   JTSS =      0 A/m^2
   JTSD =      0 A/m^2
   JTSSWS =      0 A/m
   JTSSWD =      0 A/m
   JTSSWGS =      0 A/m
   JTSSWGD =      0 A/m
   JTWEFF =      0 m
   NJTS =     20 
   NJTSD =     20 
   NJTSSW =     20 
   NJTSSWD =     20 
   NJTSSWG =     20 
   NJTSSWGD =     20 
   VTSS =     10 V
   VTSD =     10 V
   VTSSWS =     10 V
   VTSSWD =     10 V
   VTSSWGS =     10 V
   VTSSWGD =     10 V
   LINTIGEN =      0 m
   NTGEN =      1 
   AIGEN =      0 m^-3V^-1
   BIGEN =      0 m^-3V^-3
   XRCRG1 =     12 
   XRCRG2 =      1 
   NSEG = 5 
   EF =      1 
   EM = 4.1e+07 V/m
   NOIA = 6.25e+39 eV^-1s^1-EFm^-3
   NOIB = 3.125e+24 eV^-1s^1-EFm^-1
   NOIC = 8.75e+07 eV^-1s^1-EFm
   NTNOI =      1 
   TNOM =  300.1 K
   TBGASUB = 0.000702 eV/K
   TBGBSUB =   1108 K
   KT1 =      0 V
   KT1L =      0 Vm
   IIT =   -0.5 
   TII =      0 
   TGIDL = -0.0003 K^-1
   IGT =    2.5 
   TCJ =      0 K^-1
   TCJSW =      0 K^-1
   TCJSWG =      0 K^-1
   TPB =      0 K^-1
   TPBSW =      0 K^-1
   TPBSWG =      0 K^-1
   XTIS =      3 
   XTID =      3 
   XTSS =   0.02 
   XTSD =   0.02 
   XTSSWS =   0.02 
   XTSSWD =   0.02 
   XTSSWGS =   0.02 
   XTSSWGD =   0.02 
   TNJTS =      0 
   TNJTSD =      0 
   TNJTSSW =      0 
   TNJTSSWD =      0 
   TNJTSSWG =      0 
   TNJTSSWGD =      0 
   RTH0 =   0.01 ohm
   CTH0 =  1e-05 F
   WTH0 =      0 m
   LNBODY =      0 
   NNBODY =      0 
   PNBODY =      0 
   LPHIG =      0 
   NPHIG =      0 
   PPHIG =      0 
   LNGATE =      0 
   NNGATE =      0 
   PNGATE =      0 
   LCIT =      0 
   NCIT =      0 
   PCIT =      0 
   LCDSC =      0 
   NCDSC =      0 
   PCDSC =      0 
   LCDSCD =      0 
   NCDSCD =      0 
   PCDSCD =      0 
   LCDSCDR =      0 
   NCDSCDR =      0 
   PCDSCDR =      0 
   LDVT0 =      0 
   NDVT0 =      0 
   PDVT0 =      0 
   LDVT1 =      0 
   NDVT1 =      0 
   PDVT1 =      0 
   LPHIN =      0 
   NPHIN =      0 
   PPHIN =      0 
   LETA0 =      0 
   NETA0 =      0 
   PETA0 =      0 
   LETA0R =      0 
   NETA0R =      0 
   PETA0R =      0 
   LDSUB =      0 
   NDSUB =      0 
   PDSUB =      0 
   LK1RSCE =      0 
   NK1RSCE =      0 
   PK1RSCE =      0 
   LLPE0 =      0 
   NLPE0 =      0 
   PLPE0 =      0 
   LQMFACTOR =      0 
   NQMFACTOR =      0 
   PQMFACTOR =      0 
   LQMTCENIV =      0 
   NQMTCENIV =      0 
   PQMTCENIV =      0 
   LQMTCENCV =      0 
   NQMTCENCV =      0 
   PQMTCENCV =      0 
   LVSAT =      0 
   NVSAT =      0 
   PVSAT =      0 
   LKSATIV =      0 
   NKSATIV =      0 
   PKSATIV =      0 
   LMEXP =      0 
   NMEXP =      0 
   PMEXP =      0 
   LPTWG =      0 
   NPTWG =      0 
   PPTWG =      0 
   LTHETASAT =      0 
   NTHETASAT =      0 
   PTHETASAT =      0 
   LU0 =      0 
   NU0 =      0 
   PU0 =      0 
   LUP =      0 
   NUP =      0 
   PUP =      0 
   LUA =      0 
   NUA =      0 
   PUA =      0 
   LEU =      0 
   NEU =      0 
   PEU =      0 
   LUD =      0 
   NUD =      0 
   PUD =      0 
   LUCS =      0 
   NUCS =      0 
   PUCS =      0 
   LPCLM =      0 
   NPCLM =      0 
   PPCLM =      0 
   LPCLMCV =      0 
   NPCLMCV =      0 
   PPCLMCV =      0 
   LRDSW =      0 
   NRDSW =      0 
   PRDSW =      0 
   LRSW =      0 
   NRSW =      0 
   PRSW =      0 
   LRDW =      0 
   NRDW =      0 
   PRDW =      0 
   LPRWG =      0 
   NPRWG =      0 
   PPRWG =      0 
   LWR =      0 
   NWR =      0 
   PWR =      0 
   LPDIBL1 =      0 
   NPDIBL1 =      0 
   PPDIBL1 =      0 
   LPDIBL2 =      0 
   NPDIBL2 =      0 
   PPDIBL2 =      0 
   LDROUT =      0 
   NDROUT =      0 
   PDROUT =      0 
   LPVAG =      0 
   NPVAG =      0 
   PPVAG =      0 
   LAIGBINV =      0 
   NAIGBINV =      0 
   PAIGBINV =      0 
   LBIGBINV =      0 
   NBIGBINV =      0 
   PBIGBINV =      0 
   LCIGBINV =      0 
   NCIGBINV =      0 
   PCIGBINV =      0 
   LEIGBINV =      0 
   NEIGBINV =      0 
   PEIGBINV =      0 
   LNIGBINV =      0 
   NNIGBINV =      0 
   PNIGBINV =      0 
   LAIGC =      0 
   NAIGC =      0 
   PAIGC =      0 
   LBIGC =      0 
   NBIGC =      0 
   PBIGC =      0 
   LCIGC =      0 
   NCIGC =      0 
   PCIGC =      0 
   LNIGC =      0 
   NNIGC =      0 
   PNIGC =      0 
   LAIGS =      0 
   NAIGS =      0 
   PAIGS =      0 
   LBIGS =      0 
   NBIGS =      0 
   PBIGS =      0 
   LCIGS =      0 
   NCIGS =      0 
   PCIGS =      0 
   LAIGD =      0 
   NAIGD =      0 
   PAIGD =      0 
   LBIGD =      0 
   NBIGD =      0 
   PBIGD =      0 
   LCIGD =      0 
   NCIGD =      0 
   PCIGD =      0 
   LPOXEDGE =      0 
   NPOXEDGE =      0 
   PPOXEDGE =      0 
   LAGIDL =      0 
   NAGIDL =      0 
   PAGIDL =      0 
   LBGIDL =      0 
   NBGIDL =      0 
   PBGIDL =      0 
   LEGIDL =      0 
   NEGIDL =      0 
   PEGIDL =      0 
   LAGISL =      0 
   NAGISL =      0 
   PAGISL =      0 
   LBGISL =      0 
   NBGISL =      0 
   PBGISL =      0 
   LEGISL =      0 
   NEGISL =      0 
   PEGISL =      0 
   LALPHA0 =      0 
   NALPHA0 =      0 
   PALPHA0 =      0 
   LALPHA1 =      0 
   NALPHA1 =      0 
   PALPHA1 =      0 
   LBETA0 =      0 
   NBETA0 =      0 
   PBETA0 =      0 
   LALPHAII =      0 
   NALPHAII =      0 
   PALPHAII =      0 
   LBETAII0 =      0 
   NBETAII0 =      0 
   PBETAII0 =      0 
   LBETAII1 =      0 
   NBETAII1 =      0 
   PBETAII1 =      0 
   LBETAII2 =      0 
   NBETAII2 =      0 
   PBETAII2 =      0 
   LESATII =      0 
   NESATII =      0 
   PESATII =      0 
   LLII =      0 
   NLII =      0 
   PLII =      0 
   LSII0 =      0 
   NSII0 =      0 
   PSII0 =      0 
   LSII1 =      0 
   NSII1 =      0 
   PSII1 =      0 
   LSII2 =      0 
   NSII2 =      0 
   PSII2 =      0 
   LSIID =      0 
   NSIID =      0 
   PSIID =      0 
   LCFS =      0 
   NCFS =      0 
   PCFS =      0 
   LCFD =      0 
   NCFD =      0 
   PCFD =      0 
   LCOVS =      0 
   NCOVS =      0 
   PCOVS =      0 
   LCOVD =      0 
   NCOVD =      0 
   PCOVD =      0 
   LCGSL =      0 
   NCGSL =      0 
   PCGSL =      0 
   LCGDL =      0 
   NCGDL =      0 
   PCGDL =      0 
   LCKAPPAS =      0 
   NCKAPPAS =      0 
   PCKAPPAS =      0 
   LCKAPPAD =      0 
   NCKAPPAD =      0 
   PCKAPPAD =      0 
   LCGBL =      0 
   NCGBL =      0 
   PCGBL =      0 
   LCKAPPAB =      0 
   NCKAPPAB =      0 
   PCKAPPAB =      0 
   LNTGEN =      0 
   NNTGEN =      0 
   PNTGEN =      0 
   LAIGEN =      0 
   NAIGEN =      0 
   PAIGEN =      0 
   LBIGEN =      0 
   NBIGEN =      0 
   PBIGEN =      0 
   LXRCRG1 =      0 
   NXRCRG1 =      0 
   PXRCRG1 =      0 
   LXRCRG2 =      0 
   NXRCRG2 =      0 
   PXRCRG2 =      0 
   LINTNOI =      0 
   NINTNOI =      0 
   PINTNOI =      0 
   LUTE =      0 
   NUTE =      0 
   PUTE =      0 
   LUTL =      0 
   NUTL =      0 
   PUTL =      0 
   LUA1 =      0 
   NUA1 =      0 
   PUA1 =      0 
   LUD1 =      0 
   NUD1 =      0 
   PUD1 =      0 
   LUCSTE =      0 
   NUCSTE =      0 
   PUCSTE =      0 
   LPTWGT =      0 
   NPTWGT =      0 
   PPTWGT =      0 
   LAT =      0 
   NAT =      0 
   PAT =      0 
   LSTTHETASAT =      0 
   NSTTHETASAT =      0 
   PSTTHETASAT =      0 
   LPRT =      0 
   NPRT =      0 
   PPRT =      0 
   LIIT =      0 
   NIIT =      0 
   PIIT =      0 
   LTII =      0 
   NTII =      0 
   PTII =      0 
   LTGIDL =      0 
   NTGIDL =      0 
   PTGIDL =      0 
   LIGT =      0 
   NIGT =      0 
   PIGT =      0 
   L =  2e-08 m
   D =  4e-08 m
   TFIN = 1.2e-08 m
   FPITCH = 4.2e-08 m
   NF = 1 
   NFIN = 1 
   NGCON = 1 
   ASEO =      0 m^2
   ADEO =      0 m^2
   PSEO =      0 m
   PDEO =      0 m
   ASEJ =      0 m^2
   ADEJ =      0 m^2
   PSEJ =      0 m
   PDEJ =      0 m
   CGSP =      0 F
   CGDP =      0 F
   CDSP =      0 F
   NRS =      0 
   NRD =      0 
   LRSD =  2e-08 m
   XL =      0 m
   DELVTRAND =      0 
   U0MULT =      1 
   IDS0MULT =      1 
   Lmin =  1e-08 m
   Lmax =  3e-08 m
   NFINmin = 0 
   NFINmax = 1 
   LVSAT1 =      0 
   NVSAT1 =      0 
   PVSAT1 =      0 
   LETAMOB =      0 
   NETAMOB =      0 
   PETAMOB =      0 
   LPCLMG =      0 
   NPCLMG =      0 
   PPCLMG =      0 
   LVASAT =      0 
   NVASAT =      0 
   PVASAT =      0 
   LAIGBACC =      0 
   NAIGBACC =      0 
   PAIGBACC =      0 
   LBIGBACC =      0 
   NBIGBACC =      0 
   PBIGBACC =      0 
   LCIGBACC =      0 
   NCIGBACC =      0 
   PCIGBACC =      0 
   LNIGBACC =      0 
   NNIGBACC =      0 
   PNIGBACC =      0 
 Model Name: nfet 
 BSIM-MG BULK Model(Level72)
   VERSION = 105.03  
   DEVTYPE = 1 
   BULKMOD = 1  
   COREMOD = 0 
   GEOMOD = 1 
   RDSMOD = 1 
   IGCMOD = 1 
   IGBMOD = 1 
   GIDLMOD = 0 
   IIMOD = 0 
   NQSMOD = 0 
   SHMOD = 0 
   RGATEMOD = 0 
   RGEOMOD = 1 
   CGEOMOD = 2 
   CAPMOD = 0 
   LINT = -1e-09 m
   LL =      0 m^(LLN+1)
   LLN =      1 
   DLC =      0 m
   DLBIN =      0 
   LLC =      0 m^(LLN+1)
   EOT =  1e-09 m
   TOXP = 1.35e-09 m
   EOTBOX = 1.4e-07 m
   HFIN = 2.6e-08 m
   FECH =      1 
   DELTAW =      0 m
   FECHCV =      1 
   DELTAWCV =      0 m
   NBODY =  1e+23 m^-3
   NSD =  3e+26 m^-3
   PHIG =  4.589 eV
   EPSROX =    3.9 
   EPSRSUB =   11.9 
   EASUB =   4.05 eV
   NI0SUB = 1.1e+16 m^-3
   BG0SUB =   1.12 eV
   NC0SUB = 2.86e+25 m^-3
   NGATE =      0 m^-3
   CIT = 1.3e-05 F/m^2
   CDSC =  0.021 F/m^2
   CDSCD =  0.007 F/m^2
   CDSCDR =  0.007 
   DVT0 =   0.01 
   DVT1 =   0.69 
   PHIN =   0.05 V
   ETA0 = 0.7358 
   ETA0R = 0.7358 
   DSUB =    0.9 
   K1RSCE =      0 V^1/2
   LPE0 =  5e-09 m
   DVTSHIFT =      0 
   QMFACTOR =      0 
   QMTCENIV =      0 
   QMTCENCV =      0 
   AQMTCEN =      0 
   BQMTCEN = 1.2e-08 
   ETAQM =   0.54 
   QM0 = 0.001143 
   PQM =   0.66 
   QM0ACC =  0.001 
   PQMACC =   0.66 
   VSAT =  9e+04 
   AVSAT =      0 
   BVSAT =  1e-07 
   VSAT1 =  9e+04 
   AVSAT1 =      0 
   BVSAT1 =  1e-07 
   DELTAVSAT =      1 
   KSATIV =    0.8 
   MEXP =      3 
   AMEXP =      0 
   BMEXP =      1 
   PTWG =      0 
   APTWG =      0 
   BPTWG =  1e-07 
   AT = -0.00156 
   TMEXP =      0 
   PTWGT =  0.004 
   U0 = 0.0448 
   ETAMOB =      2 
   UP =      0 
   LPA =      1 
   UA =    0.3 
   AUA =      0 
   BUA =  1e-07 
   EU =    1.8 
   AEU =      0 
   BEU =  1e-07 
   UD =      0 
   AUD =      0 
   BUD =  5e-08 
   UCS =      0 
   UTE =      0 
   UTL = -0.0015 
   UA1 = 0.001032 
   UD1 =      0 
   UCSTE = -0.00478 
   RDSWMIN =      0 
   RDSW =    100 
   ARDSW =      0 
   BRDSW =  1e-07 
   RSWMIN =      0 
   RSW =      0 
   ARSW =      0 
   BRSW =  1e-07 
   RDWMIN =      0 
   RDW =      0 
   ARDW =      0 
   BRDW =  1e-07 
   PRWG =      0 
   WR =      1 
   PRT =  0.001 
   PDIBL1 =    1.3 
   PDIBL2 = 0.0002 
   DROUT =   1.06 
   PVAG =      1 
   PCLM =    0.2 
   APCLM =      0 
   BPCLM =  1e-07 
   PCLMG =      0 
   VASAT =    0.6 
   PCLMCV =  0.013 
   PCLMGCV =      0 
   VASATCV =    0.2 
   RGEXT =      0 ohm
   RGFIN =  0.001 ohm
   RSHS =      0 ohm
   RSHD =      0 ohm
   HEPI = 9.5e-09 m
   TSILI =  9e-09 m
   RHOC = 1.5e-12 ohm/m^2
   RHORSD =      1 ohm/m
   RHOEXT =      1 ohm/m
   CRATIO =    0.5 
   DELTAPRSD =      0 m
   SDTERM = 0 
   LSP =  4e-09 m
   LDG =  3e-09 m
   EPSRSP =    3.9 
   TGATE =  9e-09 m
   TMASK =      0 m
   ASILIEND =      0 m^2
   ARSDEND =      0 m^2
   PRSDEND =      0 m
   NSDE =  3e+25 m^-3
   RGEOA =      1 
   RGEOB =      0 m^-1
   RGEOC =      0 m^-1
   RGEOD =      0 m^-1
   RGEOE =      0 m^-1
   CGEOA =      1 
   CGEOB =      0 m^-1
   CGEOC =      0 m^-1
   CGEOD =      0 m^-1
   CGEOE =      1 
   AIGBINV = 0.0111 (Fs^2/g)^0.5m^-1
   BIGBINV =   0.03 (Fs^2/g)^0.5m^-1
   CIGBINV =  0.006 V^-1
   EIGBINV =    1.1 V
   NIGBINV =    1.2 
   AIGBACC = 0.0149 
   BIGBACC = 0.000949 
   CIGBACC =  0.075 
   NIGBACC =      3 
   AIGC = 0.0136 (Fs^2/g)^0.5m^-1
   BIGC = 0.00171 (Fs^2/g)^0.5m^-1V^-1
   CIGC =  0.075 V^-1
   NIGC =      1 
   DLCIGS =      0 m
   AIGS = 0.0136 (Fs^2/g)^0.5m^-1
   BIGS = 0.00171 (Fs^2/g)^0.5m^-1V^-1
   CIGS =  0.075 V^-1
   DLCIGD =      0 m
   AIGD = 0.0136 (Fs^2/g)^0.5m^-1
   BIGD = 0.00171 (Fs^2/g)^0.5m^-1V^-1
   CIGD =  0.075 V^-1
   POXEDGE =      1 
   AGIDL = 5.729e-12 ohm^-1
   BGIDL =  3e+08 V/m
   EGIDL =    0.1 V
   AGISL = 5.729e-12 ohm^-1
   BGISL =  3e+08 V/m
   EGISL =    0.1 V
   ALPHA0 =      0 mV^-1
   ALPHA1 =      0 V^-1
   BETA0 =     30 V^-1
   ALPHAII =      0 
   BETAII0 =      0 V^-1
   BETAII1 =      0 
   BETAII2 =    0.1 V
   ESATII =  1e+07 V/m
   LII =  5e-10 V/m
   SII0 =    0.5 V^-1
   SII1 =    0.1 
   SII2 =      0 V
   SIID =      0 V
   EOTACC =  1e-09 m
   DELVFBACC =      0 V
   CFS = 2.56e-11 F/m
   CFD = 2.65e-11 F/m
   COVS = 2.5e-11 F/m
   COVD = 2.5e-11 F/m
   CGSO =      0 F/m
   CGDO =      0 F/m
   CGSL =      0 F/m
   CGDL =      0 F/m
   CKAPPAS =    0.6 V
   CKAPPAD =    0.6 V
   CGBO =      0 F/m
   CGBL =      0 F/m
   CKAPPAB =    0.6 V
   CSDESW =      0 F/m
   CJS = 0.0005 F/m^2
   CJD = 0.0005 F/m^2
   CJSWS =  5e-10 F/m
   CJSWD =  5e-10 F/m
   CJSWGS =      0 F/m
   CJSWGD =      0 F/m
   PBS =      1 V
   PBD =      1 V
   PBSWS =      1 V
   PBSWD =      1 V
   PBSWGS =      1 V
   PBSWGD =      1 V
   MJS, =    0.5 
   MJD =    0.5 
   MJSWS =   0.33 
   MJSWD =   0.33 
   MJSWGS =   0.33 
   MJSWGD =   0.33 
   SJS =      0 
   SJD =      0 
   SJSWS =      0 
   SJSWD =      0 
   SJSWGS =      0 
   SJSWGD =      0 
   MJS2 =  0.125 
   MJD2 =  0.125 
   MJSWS2 =   0.33 
   MJSWD2 =   0.33 
   MJSWGS2 =   0.33 
   MJSWGD2 =   0.33 
   JSS = 0.0001 A/m^2
   JSD = 0.0001 A/m^2
   JSWS =      0 A/m
   JSWD =      0 A/m
   JSWGS =      0 A/m
   JSWGD =      0 A/m
   NJS =      1 
   NJD =      1 
   IJTHSFWD =    0.1 A
   IJTHDFWD =    0.1 A
   IJTHSREV =    0.1 A
   IJTHDREV =    0.1 A
   BVS =     10 V
   BVD =     10 V
   XJBVS =      1 
   XJBVD =      1 
   JTSS =      0 A/m^2
   JTSD =      0 A/m^2
   JTSSWS =      0 A/m
   JTSSWD =      0 A/m
   JTSSWGS =      0 A/m
   JTSSWGD =      0 A/m
   JTWEFF =      0 m
   NJTS =     20 
   NJTSD =     20 
   NJTSSW =     20 
   NJTSSWD =     20 
   NJTSSWG =     20 
   NJTSSWGD =     20 
   VTSS =     10 V
   VTSD =     10 V
   VTSSWS =     10 V
   VTSSWD =     10 V
   VTSSWGS =     10 V
   VTSSWGD =     10 V
   LINTIGEN =      0 m
   NTGEN =      1 
   AIGEN =      0 m^-3V^-1
   BIGEN =      0 m^-3V^-3
   XRCRG1 =     12 
   XRCRG2 =      1 
   NSEG = 5 
   EF =      1 
   EM = 4.1e+07 V/m
   NOIA = 6.25e+39 eV^-1s^1-EFm^-3
   NOIB = 3.125e+24 eV^-1s^1-EFm^-1
   NOIC = 8.75e+07 eV^-1s^1-EFm
   NTNOI =      1 
   TNOM =  300.1 K
   TBGASUB = 0.000702 eV/K
   TBGBSUB =   1108 K
   KT1 =      0 V
   KT1L =      0 Vm
   IIT =   -0.5 
   TII =      0 
   TGIDL = -0.0003 K^-1
   IGT =    2.5 
   TCJ =      0 K^-1
   TCJSW =      0 K^-1
   TCJSWG =      0 K^-1
   TPB =      0 K^-1
   TPBSW =      0 K^-1
   TPBSWG =      0 K^-1
   XTIS =      3 
   XTID =      3 
   XTSS =   0.02 
   XTSD =   0.02 
   XTSSWS =   0.02 
   XTSSWD =   0.02 
   XTSSWGS =   0.02 
   XTSSWGD =   0.02 
   TNJTS =      0 
   TNJTSD =      0 
   TNJTSSW =      0 
   TNJTSSWD =      0 
   TNJTSSWG =      0 
   TNJTSSWGD =      0 
   RTH0 =   0.01 ohm
   CTH0 =  1e-05 F
   WTH0 =      0 m
   LNBODY =      0 
   NNBODY =      0 
   PNBODY =      0 
   LPHIG =      0 
   NPHIG =      0 
   PPHIG =      0 
   LNGATE =      0 
   NNGATE =      0 
   PNGATE =      0 
   LCIT =      0 
   NCIT =      0 
   PCIT =      0 
   LCDSC =      0 
   NCDSC =      0 
   PCDSC =      0 
   LCDSCD =      0 
   NCDSCD =      0 
   PCDSCD =      0 
   LCDSCDR =      0 
   NCDSCDR =      0 
   PCDSCDR =      0 
   LDVT0 =      0 
   NDVT0 =      0 
   PDVT0 =      0 
   LDVT1 =      0 
   NDVT1 =      0 
   PDVT1 =      0 
   LPHIN =      0 
   NPHIN =      0 
   PPHIN =      0 
   LETA0 =      0 
   NETA0 =      0 
   PETA0 =      0 
   LETA0R =      0 
   NETA0R =      0 
   PETA0R =      0 
   LDSUB =      0 
   NDSUB =      0 
   PDSUB =      0 
   LK1RSCE =      0 
   NK1RSCE =      0 
   PK1RSCE =      0 
   LLPE0 =      0 
   NLPE0 =      0 
   PLPE0 =      0 
   LQMFACTOR =      0 
   NQMFACTOR =      0 
   PQMFACTOR =      0 
   LQMTCENIV =      0 
   NQMTCENIV =      0 
   PQMTCENIV =      0 
   LQMTCENCV =      0 
   NQMTCENCV =      0 
   PQMTCENCV =      0 
   LVSAT =      0 
   NVSAT =      0 
   PVSAT =      0 
   LKSATIV =      0 
   NKSATIV =      0 
   PKSATIV =      0 
   LMEXP =      0 
   NMEXP =      0 
   PMEXP =      0 
   LPTWG =      0 
   NPTWG =      0 
   PPTWG =      0 
   LTHETASAT =      0 
   NTHETASAT =      0 
   PTHETASAT =      0 
   LU0 =      0 
   NU0 =      0 
   PU0 =      0 
   LUP =      0 
   NUP =      0 
   PUP =      0 
   LUA =      0 
   NUA =      0 
   PUA =      0 
   LEU =      0 
   NEU =      0 
   PEU =      0 
   LUD =      0 
   NUD =      0 
   PUD =      0 
   LUCS =      0 
   NUCS =      0 
   PUCS =      0 
   LPCLM =      0 
   NPCLM =      0 
   PPCLM =      0 
   LPCLMCV =      0 
   NPCLMCV =      0 
   PPCLMCV =      0 
   LRDSW =      0 
   NRDSW =      0 
   PRDSW =      0 
   LRSW =      0 
   NRSW =      0 
   PRSW =      0 
   LRDW =      0 
   NRDW =      0 
   PRDW =      0 
   LPRWG =      0 
   NPRWG =      0 
   PPRWG =      0 
   LWR =      0 
   NWR =      0 
   PWR =      0 
   LPDIBL1 =      0 
   NPDIBL1 =      0 
   PPDIBL1 =      0 
   LPDIBL2 =      0 
   NPDIBL2 =      0 
   PPDIBL2 =      0 
   LDROUT =      0 
   NDROUT =      0 
   PDROUT =      0 
   LPVAG =      0 
   NPVAG =      0 
   PPVAG =      0 
   LAIGBINV =      0 
   NAIGBINV =      0 
   PAIGBINV =      0 
   LBIGBINV =      0 
   NBIGBINV =      0 
   PBIGBINV =      0 
   LCIGBINV =      0 
   NCIGBINV =      0 
   PCIGBINV =      0 
   LEIGBINV =      0 
   NEIGBINV =      0 
   PEIGBINV =      0 
   LNIGBINV =      0 
   NNIGBINV =      0 
   PNIGBINV =      0 
   LAIGC =      0 
   NAIGC =      0 
   PAIGC =      0 
   LBIGC =      0 
   NBIGC =      0 
   PBIGC =      0 
   LCIGC =      0 
   NCIGC =      0 
   PCIGC =      0 
   LNIGC =      0 
   NNIGC =      0 
   PNIGC =      0 
   LAIGS =      0 
   NAIGS =      0 
   PAIGS =      0 
   LBIGS =      0 
   NBIGS =      0 
   PBIGS =      0 
   LCIGS =      0 
   NCIGS =      0 
   PCIGS =      0 
   LAIGD =      0 
   NAIGD =      0 
   PAIGD =      0 
   LBIGD =      0 
   NBIGD =      0 
   PBIGD =      0 
   LCIGD =      0 
   NCIGD =      0 
   PCIGD =      0 
   LPOXEDGE =      0 
   NPOXEDGE =      0 
   PPOXEDGE =      0 
   LAGIDL =      0 
   NAGIDL =      0 
   PAGIDL =      0 
   LBGIDL =      0 
   NBGIDL =      0 
   PBGIDL =      0 
   LEGIDL =      0 
   NEGIDL =      0 
   PEGIDL =      0 
   LAGISL =      0 
   NAGISL =      0 
   PAGISL =      0 
   LBGISL =      0 
   NBGISL =      0 
   PBGISL =      0 
   LEGISL =      0 
   NEGISL =      0 
   PEGISL =      0 
   LALPHA0 =      0 
   NALPHA0 =      0 
   PALPHA0 =      0 
   LALPHA1 =      0 
   NALPHA1 =      0 
   PALPHA1 =      0 
   LBETA0 =      0 
   NBETA0 =      0 
   PBETA0 =      0 
   LALPHAII =      0 
   NALPHAII =      0 
   PALPHAII =      0 
   LBETAII0 =      0 
   NBETAII0 =      0 
   PBETAII0 =      0 
   LBETAII1 =      0 
   NBETAII1 =      0 
   PBETAII1 =      0 
   LBETAII2 =      0 
   NBETAII2 =      0 
   PBETAII2 =      0 
   LESATII =      0 
   NESATII =      0 
   PESATII =      0 
   LLII =      0 
   NLII =      0 
   PLII =      0 
   LSII0 =      0 
   NSII0 =      0 
   PSII0 =      0 
   LSII1 =      0 
   NSII1 =      0 
   PSII1 =      0 
   LSII2 =      0 
   NSII2 =      0 
   PSII2 =      0 
   LSIID =      0 
   NSIID =      0 
   PSIID =      0 
   LCFS =      0 
   NCFS =      0 
   PCFS =      0 
   LCFD =      0 
   NCFD =      0 
   PCFD =      0 
   LCOVS =      0 
   NCOVS =      0 
   PCOVS =      0 
   LCOVD =      0 
   NCOVD =      0 
   PCOVD =      0 
   LCGSL =      0 
   NCGSL =      0 
   PCGSL =      0 
   LCGDL =      0 
   NCGDL =      0 
   PCGDL =      0 
   LCKAPPAS =      0 
   NCKAPPAS =      0 
   PCKAPPAS =      0 
   LCKAPPAD =      0 
   NCKAPPAD =      0 
   PCKAPPAD =      0 
   LCGBL =      0 
   NCGBL =      0 
   PCGBL =      0 
   LCKAPPAB =      0 
   NCKAPPAB =      0 
   PCKAPPAB =      0 
   LNTGEN =      0 
   NNTGEN =      0 
   PNTGEN =      0 
   LAIGEN =      0 
   NAIGEN =      0 
   PAIGEN =      0 
   LBIGEN =      0 
   NBIGEN =      0 
   PBIGEN =      0 
   LXRCRG1 =      0 
   NXRCRG1 =      0 
   PXRCRG1 =      0 
   LXRCRG2 =      0 
   NXRCRG2 =      0 
   PXRCRG2 =      0 
   LINTNOI =      0 
   NINTNOI =      0 
   PINTNOI =      0 
   LUTE =      0 
   NUTE =      0 
   PUTE =      0 
   LUTL =      0 
   NUTL =      0 
   PUTL =      0 
   LUA1 =      0 
   NUA1 =      0 
   PUA1 =      0 
   LUD1 =      0 
   NUD1 =      0 
   PUD1 =      0 
   LUCSTE =      0 
   NUCSTE =      0 
   PUCSTE =      0 
   LPTWGT =      0 
   NPTWGT =      0 
   PPTWGT =      0 
   LAT =      0 
   NAT =      0 
   PAT =      0 
   LSTTHETASAT =      0 
   NSTTHETASAT =      0 
   PSTTHETASAT =      0 
   LPRT =      0 
   NPRT =      0 
   PPRT =      0 
   LIIT =      0 
   NIIT =      0 
   PIIT =      0 
   LTII =      0 
   NTII =      0 
   PTII =      0 
   LTGIDL =      0 
   NTGIDL =      0 
   PTGIDL =      0 
   LIGT =      0 
   NIGT =      0 
   PIGT =      0 
   L =  2e-08 m
   D =  4e-08 m
   TFIN = 1.2e-08 m
   FPITCH = 4.2e-08 m
   NF = 1 
   NFIN = 1 
   NGCON = 1 
   ASEO =      0 m^2
   ADEO =      0 m^2
   PSEO =      0 m
   PDEO =      0 m
   ASEJ =      0 m^2
   ADEJ =      0 m^2
   PSEJ =      0 m
   PDEJ =      0 m
   CGSP =      0 F
   CGDP =      0 F
   CDSP =      0 F
   NRS =      0 
   NRD =      0 
   LRSD =  2e-08 m
   XL =      0 m
   DELVTRAND =      0 
   U0MULT =      1 
   IDS0MULT =      1 
   Lmin =  1e-08 m
   Lmax =  3e-08 m
   NFINmin = 0 
   NFINmax = 1 
   LVSAT1 =      0 
   NVSAT1 =      0 
   PVSAT1 =      0 
   LETAMOB =      0 
   NETAMOB =      0 
   PETAMOB =      0 
   LPCLMG =      0 
   NPCLMG =      0 
   PPCLMG =      0 
   LVASAT =      0 
   NVASAT =      0 
   PVASAT =      0 
   LAIGBACC =      0 
   NAIGBACC =      0 
   PAIGBACC =      0 
   LBIGBACC =      0 
   NBIGBACC =      0 
   PBIGBACC =      0 
   LCIGBACC =      0 
   NCIGBACC =      0 
   PCIGBACC =      0 
   LNIGBACC =      0 
   NNIGBACC =      0 
   PNIGBACC =      0 
 Model Name: pfet 
 BSIM-MG BULK Model(Level72)
   VERSION = 105.03  
   DEVTYPE = -1 
   BULKMOD = 1  
   COREMOD = 0 
   GEOMOD = 1 
   RDSMOD = 1 
   IGCMOD = 1 
   IGBMOD = 1 
   GIDLMOD = 0 
   IIMOD = 0 
   NQSMOD = 0 
   SHMOD = 0 
   RGATEMOD = 0 
   RGEOMOD = 1 
   CGEOMOD = 2 
   CAPMOD = 0 
   LINT = -1e-09 m
   LL =      0 m^(LLN+1)
   LLN =      1 
   DLC =      0 m
   DLBIN =      0 
   LLC =      0 m^(LLN+1)
   EOT =  1e-09 m
   TOXP = 1.35e-09 m
   EOTBOX = 1.4e-07 m
   HFIN = 2.6e-08 m
   FECH =      1 
   DELTAW =      0 m
   FECHCV =      1 
   DELTAWCV =      0 m
   NBODY =  1e+23 m^-3
   NSD =  3e+26 m^-3
   PHIG =  4.588 eV
   EPSROX =    3.9 
   EPSRSUB =   11.9 
   EASUB =   4.05 eV
   NI0SUB = 1.1e+16 m^-3
   BG0SUB =   1.12 eV
   NC0SUB = 2.86e+25 m^-3
   NGATE =      0 m^-3
   CIT = 1.3e-05 F/m^2
   CDSC =  0.021 F/m^2
   CDSCD =  0.007 F/m^2
   CDSCDR =  0.007 
   DVT0 =   0.01 
   DVT1 =   0.69 
   PHIN =   0.05 V
   ETA0 = 0.9925 
   ETA0R = 0.9925 
   DSUB =    0.9 
   K1RSCE =      0 V^1/2
   LPE0 =  5e-09 m
   DVTSHIFT =      0 
   QMFACTOR =      0 
   QMTCENIV =      0 
   QMTCENCV =      0 
   AQMTCEN =      0 
   BQMTCEN = 1.2e-08 
   ETAQM =   0.54 
   QM0 = 0.001143 
   PQM =   0.66 
   QM0ACC =  0.001 
   PQMACC =   0.66 
   VSAT = 8.8e+04 
   AVSAT =      0 
   BVSAT =  1e-07 
   VSAT1 = 8.8e+04 
   AVSAT1 =      0 
   BVSAT1 =  1e-07 
   DELTAVSAT =      1 
   KSATIV =    0.8 
   MEXP =      3 
   AMEXP =      0 
   BMEXP =      1 
   PTWG =      0 
   APTWG =      0 
   BPTWG =  1e-07 
   AT = -0.00156 
   TMEXP =      0 
   PTWGT =  0.004 
   U0 =   0.03 
   ETAMOB =      2 
   UP =      0 
   LPA =      1 
   UA =    0.3 
   AUA =      0 
   BUA =  1e-07 
   EU =    1.8 
   AEU =      0 
   BEU =  1e-07 
   UD =      0 
   AUD =      0 
   BUD =  5e-08 
   UCS =      0 
   UTE =      0 
   UTL = -0.0015 
   UA1 = 0.001032 
   UD1 =      0 
   UCSTE = -0.00478 
   RDSWMIN =      0 
   RDSW =    100 
   ARDSW =      0 
   BRDSW =  1e-07 
   RSWMIN =      0 
   RSW =      0 
   ARSW =      0 
   BRSW =  1e-07 
   RDWMIN =      0 
   RDW =      0 
   ARDW =      0 
   BRDW =  1e-07 
   PRWG =      0 
   WR =      1 
   PRT =  0.001 
   PDIBL1 =    1.3 
   PDIBL2 = 0.0002 
   DROUT =   1.06 
   PVAG =      1 
   PCLM =    0.2 
   APCLM =      0 
   BPCLM =  1e-07 
   PCLMG =      0 
   VASAT =    0.6 
   PCLMCV =  0.013 
   PCLMGCV =      0 
   VASATCV =    0.2 
   RGEXT =      0 ohm
   RGFIN =  0.001 ohm
   RSHS =      0 ohm
   RSHD =      0 ohm
   HEPI = 9.5e-09 m
   TSILI =  9e-09 m
   RHOC =  2e-12 ohm/m^2
   RHORSD =      1 ohm/m
   RHOEXT =      1 ohm/m
   CRATIO =    0.5 
   DELTAPRSD =      0 m
   SDTERM = 0 
   LSP =  4e-09 m
   LDG =  3e-09 m
   EPSRSP =    3.9 
   TGATE =  9e-09 m
   TMASK =      0 m
   ASILIEND =      0 m^2
   ARSDEND =      0 m^2
   PRSDEND =      0 m
   NSDE =  3e+25 m^-3
   RGEOA =      1 
   RGEOB =      0 m^-1
   RGEOC =      0 m^-1
   RGEOD =      0 m^-1
   RGEOE =      0 m^-1
   CGEOA =      1 
   CGEOB =      0 m^-1
   CGEOC =      0 m^-1
   CGEOD =      0 m^-1
   CGEOE =      1 
   AIGBINV = 0.0111 (Fs^2/g)^0.5m^-1
   BIGBINV =   0.03 (Fs^2/g)^0.5m^-1
   CIGBINV =  0.006 V^-1
   EIGBINV =    1.1 V
   NIGBINV =    1.2 
   AIGBACC = 0.0149 
   BIGBACC = 0.000949 
   CIGBACC =  0.075 
   NIGBACC =      3 
   AIGC = 0.0136 (Fs^2/g)^0.5m^-1
   BIGC = 0.00171 (Fs^2/g)^0.5m^-1V^-1
   CIGC =  0.075 V^-1
   NIGC =      1 
   DLCIGS =      0 m
   AIGS = 0.0136 (Fs^2/g)^0.5m^-1
   BIGS = 0.00171 (Fs^2/g)^0.5m^-1V^-1
   CIGS =  0.075 V^-1
   DLCIGD =      0 m
   AIGD = 0.0136 (Fs^2/g)^0.5m^-1
   BIGD = 0.00171 (Fs^2/g)^0.5m^-1V^-1
   CIGD =  0.075 V^-1
   POXEDGE =      1 
   AGIDL = 5.729e-12 ohm^-1
   BGIDL =  3e+08 V/m
   EGIDL =    0.1 V
   AGISL = 5.729e-12 ohm^-1
   BGISL =  3e+08 V/m
   EGISL =    0.1 V
   ALPHA0 =      0 mV^-1
   ALPHA1 =      0 V^-1
   BETA0 =     30 V^-1
   ALPHAII =      0 
   BETAII0 =      0 V^-1
   BETAII1 =      0 
   BETAII2 =    0.1 V
   ESATII =  1e+07 V/m
   LII =  5e-10 V/m
   SII0 =    0.5 V^-1
   SII1 =    0.1 
   SII2 =      0 V
   SIID =      0 V
   EOTACC =  1e-09 m
   DELVFBACC =      0 V
   CFS = 2.56e-11 F/m
   CFD = 2.65e-11 F/m
   COVS = 2.5e-11 F/m
   COVD = 2.5e-11 F/m
   CGSO =      0 F/m
   CGDO =      0 F/m
   CGSL =      0 F/m
   CGDL =      0 F/m
   CKAPPAS =    0.6 V
   CKAPPAD =    0.6 V
   CGBO =      0 F/m
   CGBL =      0 F/m
   CKAPPAB =    0.6 V
   CSDESW =      0 F/m
   CJS = 0.0005 F/m^2
   CJD = 0.0005 F/m^2
   CJSWS =  5e-10 F/m
   CJSWD =  5e-10 F/m
   CJSWGS =      0 F/m
   CJSWGD =      0 F/m
   PBS =      1 V
   PBD =      1 V
   PBSWS =      1 V
   PBSWD =      1 V
   PBSWGS =      1 V
   PBSWGD =      1 V
   MJS, =    0.5 
   MJD =    0.5 
   MJSWS =   0.33 
   MJSWD =   0.33 
   MJSWGS =   0.33 
   MJSWGD =   0.33 
   SJS =      0 
   SJD =      0 
   SJSWS =      0 
   SJSWD =      0 
   SJSWGS =      0 
   SJSWGD =      0 
   MJS2 =  0.125 
   MJD2 =  0.125 
   MJSWS2 =   0.33 
   MJSWD2 =   0.33 
   MJSWGS2 =   0.33 
   MJSWGD2 =   0.33 
   JSS = 0.0001 A/m^2
   JSD = 0.0001 A/m^2
   JSWS =      0 A/m
   JSWD =      0 A/m
   JSWGS =      0 A/m
   JSWGD =      0 A/m
   NJS =      1 
   NJD =      1 
   IJTHSFWD =    0.1 A
   IJTHDFWD =    0.1 A
   IJTHSREV =    0.1 A
   IJTHDREV =    0.1 A
   BVS =     10 V
   BVD =     10 V
   XJBVS =      1 
   XJBVD =      1 
   JTSS =      0 A/m^2
   JTSD =      0 A/m^2
   JTSSWS =      0 A/m
   JTSSWD =      0 A/m
   JTSSWGS =      0 A/m
   JTSSWGD =      0 A/m
   JTWEFF =      0 m
   NJTS =     20 
   NJTSD =     20 
   NJTSSW =     20 
   NJTSSWD =     20 
   NJTSSWG =     20 
   NJTSSWGD =     20 
   VTSS =     10 V
   VTSD =     10 V
   VTSSWS =     10 V
   VTSSWD =     10 V
   VTSSWGS =     10 V
   VTSSWGD =     10 V
   LINTIGEN =      0 m
   NTGEN =      1 
   AIGEN =      0 m^-3V^-1
   BIGEN =      0 m^-3V^-3
   XRCRG1 =     12 
   XRCRG2 =      1 
   NSEG = 5 
   EF =      1 
   EM = 4.1e+07 V/m
   NOIA = 6.25e+39 eV^-1s^1-EFm^-3
   NOIB = 3.125e+24 eV^-1s^1-EFm^-1
   NOIC = 8.75e+07 eV^-1s^1-EFm
   NTNOI =      1 
   TNOM =  300.1 K
   TBGASUB = 0.000702 eV/K
   TBGBSUB =   1108 K
   KT1 =      0 V
   KT1L =      0 Vm
   IIT =   -0.5 
   TII =      0 
   TGIDL = -0.0003 K^-1
   IGT =    2.5 
   TCJ =      0 K^-1
   TCJSW =      0 K^-1
   TCJSWG =      0 K^-1
   TPB =      0 K^-1
   TPBSW =      0 K^-1
   TPBSWG =      0 K^-1
   XTIS =      3 
   XTID =      3 
   XTSS =   0.02 
   XTSD =   0.02 
   XTSSWS =   0.02 
   XTSSWD =   0.02 
   XTSSWGS =   0.02 
   XTSSWGD =   0.02 
   TNJTS =      0 
   TNJTSD =      0 
   TNJTSSW =      0 
   TNJTSSWD =      0 
   TNJTSSWG =      0 
   TNJTSSWGD =      0 
   RTH0 =   0.01 ohm
   CTH0 =  1e-05 F
   WTH0 =      0 m
   LNBODY =      0 
   NNBODY =      0 
   PNBODY =      0 
   LPHIG =      0 
   NPHIG =      0 
   PPHIG =      0 
   LNGATE =      0 
   NNGATE =      0 
   PNGATE =      0 
   LCIT =      0 
   NCIT =      0 
   PCIT =      0 
   LCDSC =      0 
   NCDSC =      0 
   PCDSC =      0 
   LCDSCD =      0 
   NCDSCD =      0 
   PCDSCD =      0 
   LCDSCDR =      0 
   NCDSCDR =      0 
   PCDSCDR =      0 
   LDVT0 =      0 
   NDVT0 =      0 
   PDVT0 =      0 
   LDVT1 =      0 
   NDVT1 =      0 
   PDVT1 =      0 
   LPHIN =      0 
   NPHIN =      0 
   PPHIN =      0 
   LETA0 =      0 
   NETA0 =      0 
   PETA0 =      0 
   LETA0R =      0 
   NETA0R =      0 
   PETA0R =      0 
   LDSUB =      0 
   NDSUB =      0 
   PDSUB =      0 
   LK1RSCE =      0 
   NK1RSCE =      0 
   PK1RSCE =      0 
   LLPE0 =      0 
   NLPE0 =      0 
   PLPE0 =      0 
   LQMFACTOR =      0 
   NQMFACTOR =      0 
   PQMFACTOR =      0 
   LQMTCENIV =      0 
   NQMTCENIV =      0 
   PQMTCENIV =      0 
   LQMTCENCV =      0 
   NQMTCENCV =      0 
   PQMTCENCV =      0 
   LVSAT =      0 
   NVSAT =      0 
   PVSAT =      0 
   LKSATIV =      0 
   NKSATIV =      0 
   PKSATIV =      0 
   LMEXP =      0 
   NMEXP =      0 
   PMEXP =      0 
   LPTWG =      0 
   NPTWG =      0 
   PPTWG =      0 
   LTHETASAT =      0 
   NTHETASAT =      0 
   PTHETASAT =      0 
   LU0 =      0 
   NU0 =      0 
   PU0 =      0 
   LUP =      0 
   NUP =      0 
   PUP =      0 
   LUA =      0 
   NUA =      0 
   PUA =      0 
   LEU =      0 
   NEU =      0 
   PEU =      0 
   LUD =      0 
   NUD =      0 
   PUD =      0 
   LUCS =      0 
   NUCS =      0 
   PUCS =      0 
   LPCLM =      0 
   NPCLM =      0 
   PPCLM =      0 
   LPCLMCV =      0 
   NPCLMCV =      0 
   PPCLMCV =      0 
   LRDSW =      0 
   NRDSW =      0 
   PRDSW =      0 
   LRSW =      0 
   NRSW =      0 
   PRSW =      0 
   LRDW =      0 
   NRDW =      0 
   PRDW =      0 
   LPRWG =      0 
   NPRWG =      0 
   PPRWG =      0 
   LWR =      0 
   NWR =      0 
   PWR =      0 
   LPDIBL1 =      0 
   NPDIBL1 =      0 
   PPDIBL1 =      0 
   LPDIBL2 =      0 
   NPDIBL2 =      0 
   PPDIBL2 =      0 
   LDROUT =      0 
   NDROUT =      0 
   PDROUT =      0 
   LPVAG =      0 
   NPVAG =      0 
   PPVAG =      0 
   LAIGBINV =      0 
   NAIGBINV =      0 
   PAIGBINV =      0 
   LBIGBINV =      0 
   NBIGBINV =      0 
   PBIGBINV =      0 
   LCIGBINV =      0 
   NCIGBINV =      0 
   PCIGBINV =      0 
   LEIGBINV =      0 
   NEIGBINV =      0 
   PEIGBINV =      0 
   LNIGBINV =      0 
   NNIGBINV =      0 
   PNIGBINV =      0 
   LAIGC =      0 
   NAIGC =      0 
   PAIGC =      0 
   LBIGC =      0 
   NBIGC =      0 
   PBIGC =      0 
   LCIGC =      0 
   NCIGC =      0 
   PCIGC =      0 
   LNIGC =      0 
   NNIGC =      0 
   PNIGC =      0 
   LAIGS =      0 
   NAIGS =      0 
   PAIGS =      0 
   LBIGS =      0 
   NBIGS =      0 
   PBIGS =      0 
   LCIGS =      0 
   NCIGS =      0 
   PCIGS =      0 
   LAIGD =      0 
   NAIGD =      0 
   PAIGD =      0 
   LBIGD =      0 
   NBIGD =      0 
   PBIGD =      0 
   LCIGD =      0 
   NCIGD =      0 
   PCIGD =      0 
   LPOXEDGE =      0 
   NPOXEDGE =      0 
   PPOXEDGE =      0 
   LAGIDL =      0 
   NAGIDL =      0 
   PAGIDL =      0 
   LBGIDL =      0 
   NBGIDL =      0 
   PBGIDL =      0 
   LEGIDL =      0 
   NEGIDL =      0 
   PEGIDL =      0 
   LAGISL =      0 
   NAGISL =      0 
   PAGISL =      0 
   LBGISL =      0 
   NBGISL =      0 
   PBGISL =      0 
   LEGISL =      0 
   NEGISL =      0 
   PEGISL =      0 
   LALPHA0 =      0 
   NALPHA0 =      0 
   PALPHA0 =      0 
   LALPHA1 =      0 
   NALPHA1 =      0 
   PALPHA1 =      0 
   LBETA0 =      0 
   NBETA0 =      0 
   PBETA0 =      0 
   LALPHAII =      0 
   NALPHAII =      0 
   PALPHAII =      0 
   LBETAII0 =      0 
   NBETAII0 =      0 
   PBETAII0 =      0 
   LBETAII1 =      0 
   NBETAII1 =      0 
   PBETAII1 =      0 
   LBETAII2 =      0 
   NBETAII2 =      0 
   PBETAII2 =      0 
   LESATII =      0 
   NESATII =      0 
   PESATII =      0 
   LLII =      0 
   NLII =      0 
   PLII =      0 
   LSII0 =      0 
   NSII0 =      0 
   PSII0 =      0 
   LSII1 =      0 
   NSII1 =      0 
   PSII1 =      0 
   LSII2 =      0 
   NSII2 =      0 
   PSII2 =      0 
   LSIID =      0 
   NSIID =      0 
   PSIID =      0 
   LCFS =      0 
   NCFS =      0 
   PCFS =      0 
   LCFD =      0 
   NCFD =      0 
   PCFD =      0 
   LCOVS =      0 
   NCOVS =      0 
   PCOVS =      0 
   LCOVD =      0 
   NCOVD =      0 
   PCOVD =      0 
   LCGSL =      0 
   NCGSL =      0 
   PCGSL =      0 
   LCGDL =      0 
   NCGDL =      0 
   PCGDL =      0 
   LCKAPPAS =      0 
   NCKAPPAS =      0 
   PCKAPPAS =      0 
   LCKAPPAD =      0 
   NCKAPPAD =      0 
   PCKAPPAD =      0 
   LCGBL =      0 
   NCGBL =      0 
   PCGBL =      0 
   LCKAPPAB =      0 
   NCKAPPAB =      0 
   PCKAPPAB =      0 
   LNTGEN =      0 
   NNTGEN =      0 
   PNTGEN =      0 
   LAIGEN =      0 
   NAIGEN =      0 
   PAIGEN =      0 
   LBIGEN =      0 
   NBIGEN =      0 
   PBIGEN =      0 
   LXRCRG1 =      0 
   NXRCRG1 =      0 
   PXRCRG1 =      0 
   LXRCRG2 =      0 
   NXRCRG2 =      0 
   PXRCRG2 =      0 
   LINTNOI =      0 
   NINTNOI =      0 
   PINTNOI =      0 
   LUTE =      0 
   NUTE =      0 
   PUTE =      0 
   LUTL =      0 
   NUTL =      0 
   PUTL =      0 
   LUA1 =      0 
   NUA1 =      0 
   PUA1 =      0 
   LUD1 =      0 
   NUD1 =      0 
   PUD1 =      0 
   LUCSTE =      0 
   NUCSTE =      0 
   PUCSTE =      0 
   LPTWGT =      0 
   NPTWGT =      0 
   PPTWGT =      0 
   LAT =      0 
   NAT =      0 
   PAT =      0 
   LSTTHETASAT =      0 
   NSTTHETASAT =      0 
   PSTTHETASAT =      0 
   LPRT =      0 
   NPRT =      0 
   PPRT =      0 
   LIIT =      0 
   NIIT =      0 
   PIIT =      0 
   LTII =      0 
   NTII =      0 
   PTII =      0 
   LTGIDL =      0 
   NTGIDL =      0 
   PTGIDL =      0 
   LIGT =      0 
   NIGT =      0 
   PIGT =      0 
   L =  2e-08 m
   D =  4e-08 m
   TFIN = 1.2e-08 m
   FPITCH = 4.2e-08 m
   NF = 1 
   NFIN = 1 
   NGCON = 1 
   ASEO =      0 m^2
   ADEO =      0 m^2
   PSEO =      0 m
   PDEO =      0 m
   ASEJ =      0 m^2
   ADEJ =      0 m^2
   PSEJ =      0 m
   PDEJ =      0 m
   CGSP =      0 F
   CGDP =      0 F
   CDSP =      0 F
   NRS =      0 
   NRD =      0 
   LRSD =  2e-08 m
   XL =      0 m
   DELVTRAND =      0 
   U0MULT =      1 
   IDS0MULT =      1 
   Lmin =  1e-08 m
   Lmax =  3e-08 m
   NFINmin = 0 
   NFINmax = 1 
   LVSAT1 =      0 
   NVSAT1 =      0 
   PVSAT1 =      0 
   LETAMOB =      0 
   NETAMOB =      0 
   PETAMOB =      0 
   LPCLMG =      0 
   NPCLMG =      0 
   PPCLMG =      0 
   LVASAT =      0 
   NVASAT =      0 
   PVASAT =      0 
   LAIGBACC =      0 
   NAIGBACC =      0 
   PAIGBACC =      0 
   LBIGBACC =      0 
   NBIGBACC =      0 
   PBIGBACC =      0 
   LCIGBACC =      0 
   NCIGBACC =      0 
   PCIGBACC =      0 
   LNIGBACC =      0 
   NNIGBACC =      0 
   PNIGBACC =      0 
 Model Name: nfet 
 BSIM-MG BULK Model(Level72)
   VERSION = 105.03  
   DEVTYPE = 1 
   BULKMOD = 1  
   COREMOD = 0 
   GEOMOD = 1 
   RDSMOD = 1 
   IGCMOD = 1 
   IGBMOD = 1 
   GIDLMOD = 0 
   IIMOD = 0 
   NQSMOD = 0 
   SHMOD = 0 
   RGATEMOD = 0 
   RGEOMOD = 1 
   CGEOMOD = 2 
   CAPMOD = 0 
   LINT = -1e-09 m
   LL =      0 m^(LLN+1)
   LLN =      1 
   DLC =      0 m
   DLBIN =      0 
   LLC =      0 m^(LLN+1)
   EOT =  1e-09 m
   TOXP = 1.35e-09 m
   EOTBOX = 1.4e-07 m
   HFIN = 2.6e-08 m
   FECH =      1 
   DELTAW =      0 m
   FECHCV =      1 
   DELTAWCV =      0 m
   NBODY =  1e+23 m^-3
   NSD =  3e+26 m^-3
   PHIG =  4.589 eV
   EPSROX =    3.9 
   EPSRSUB =   11.9 
   EASUB =   4.05 eV
   NI0SUB = 1.1e+16 m^-3
   BG0SUB =   1.12 eV
   NC0SUB = 2.86e+25 m^-3
   NGATE =      0 m^-3
   CIT = 1.3e-05 F/m^2
   CDSC =  0.021 F/m^2
   CDSCD =  0.007 F/m^2
   CDSCDR =  0.007 
   DVT0 =   0.01 
   DVT1 =   0.69 
   PHIN =   0.05 V
   ETA0 = 0.7358 
   ETA0R = 0.7358 
   DSUB =    0.9 
   K1RSCE =      0 V^1/2
   LPE0 =  5e-09 m
   DVTSHIFT =      0 
   QMFACTOR =      0 
   QMTCENIV =      0 
   QMTCENCV =      0 
   AQMTCEN =      0 
   BQMTCEN = 1.2e-08 
   ETAQM =   0.54 
   QM0 = 0.001143 
   PQM =   0.66 
   QM0ACC =  0.001 
   PQMACC =   0.66 
   VSAT =  9e+04 
   AVSAT =      0 
   BVSAT =  1e-07 
   VSAT1 =  9e+04 
   AVSAT1 =      0 
   BVSAT1 =  1e-07 
   DELTAVSAT =      1 
   KSATIV =    0.8 
   MEXP =      3 
   AMEXP =      0 
   BMEXP =      1 
   PTWG =      0 
   APTWG =      0 
   BPTWG =  1e-07 
   AT = -0.00156 
   TMEXP =      0 
   PTWGT =  0.004 
   U0 = 0.0448 
   ETAMOB =      2 
   UP =      0 
   LPA =      1 
   UA =    0.3 
   AUA =      0 
   BUA =  1e-07 
   EU =    1.8 
   AEU =      0 
   BEU =  1e-07 
   UD =      0 
   AUD =      0 
   BUD =  5e-08 
   UCS =      0 
   UTE =      0 
   UTL = -0.0015 
   UA1 = 0.001032 
   UD1 =      0 
   UCSTE = -0.00478 
   RDSWMIN =      0 
   RDSW =    100 
   ARDSW =      0 
   BRDSW =  1e-07 
   RSWMIN =      0 
   RSW =      0 
   ARSW =      0 
   BRSW =  1e-07 
   RDWMIN =      0 
   RDW =      0 
   ARDW =      0 
   BRDW =  1e-07 
   PRWG =      0 
   WR =      1 
   PRT =  0.001 
   PDIBL1 =    1.3 
   PDIBL2 = 0.0002 
   DROUT =   1.06 
   PVAG =      1 
   PCLM =    0.2 
   APCLM =      0 
   BPCLM =  1e-07 
   PCLMG =      0 
   VASAT =    0.6 
   PCLMCV =  0.013 
   PCLMGCV =      0 
   VASATCV =    0.2 
   RGEXT =      0 ohm
   RGFIN =  0.001 ohm
   RSHS =      0 ohm
   RSHD =      0 ohm
   HEPI = 9.5e-09 m
   TSILI =  9e-09 m
   RHOC = 1.5e-12 ohm/m^2
   RHORSD =      1 ohm/m
   RHOEXT =      1 ohm/m
   CRATIO =    0.5 
   DELTAPRSD =      0 m
   SDTERM = 0 
   LSP =  4e-09 m
   LDG =  3e-09 m
   EPSRSP =    3.9 
   TGATE =  9e-09 m
   TMASK =      0 m
   ASILIEND =      0 m^2
   ARSDEND =      0 m^2
   PRSDEND =      0 m
   NSDE =  3e+25 m^-3
   RGEOA =      1 
   RGEOB =      0 m^-1
   RGEOC =      0 m^-1
   RGEOD =      0 m^-1
   RGEOE =      0 m^-1
   CGEOA =      1 
   CGEOB =      0 m^-1
   CGEOC =      0 m^-1
   CGEOD =      0 m^-1
   CGEOE =      1 
   AIGBINV = 0.0111 (Fs^2/g)^0.5m^-1
   BIGBINV =   0.03 (Fs^2/g)^0.5m^-1
   CIGBINV =  0.006 V^-1
   EIGBINV =    1.1 V
   NIGBINV =    1.2 
   AIGBACC = 0.0149 
   BIGBACC = 0.000949 
   CIGBACC =  0.075 
   NIGBACC =      3 
   AIGC = 0.0136 (Fs^2/g)^0.5m^-1
   BIGC = 0.00171 (Fs^2/g)^0.5m^-1V^-1
   CIGC =  0.075 V^-1
   NIGC =      1 
   DLCIGS =      0 m
   AIGS = 0.0136 (Fs^2/g)^0.5m^-1
   BIGS = 0.00171 (Fs^2/g)^0.5m^-1V^-1
   CIGS =  0.075 V^-1
   DLCIGD =      0 m
   AIGD = 0.0136 (Fs^2/g)^0.5m^-1
   BIGD = 0.00171 (Fs^2/g)^0.5m^-1V^-1
   CIGD =  0.075 V^-1
   POXEDGE =      1 
   AGIDL = 5.729e-12 ohm^-1
   BGIDL =  3e+08 V/m
   EGIDL =    0.1 V
   AGISL = 5.729e-12 ohm^-1
   BGISL =  3e+08 V/m
   EGISL =    0.1 V
   ALPHA0 =      0 mV^-1
   ALPHA1 =      0 V^-1
   BETA0 =     30 V^-1
   ALPHAII =      0 
   BETAII0 =      0 V^-1
   BETAII1 =      0 
   BETAII2 =    0.1 V
   ESATII =  1e+07 V/m
   LII =  5e-10 V/m
   SII0 =    0.5 V^-1
   SII1 =    0.1 
   SII2 =      0 V
   SIID =      0 V
   EOTACC =  1e-09 m
   DELVFBACC =      0 V
   CFS = 2.56e-11 F/m
   CFD = 2.65e-11 F/m
   COVS = 2.5e-11 F/m
   COVD = 2.5e-11 F/m
   CGSO =      0 F/m
   CGDO =      0 F/m
   CGSL =      0 F/m
   CGDL =      0 F/m
   CKAPPAS =    0.6 V
   CKAPPAD =    0.6 V
   CGBO =      0 F/m
   CGBL =      0 F/m
   CKAPPAB =    0.6 V
   CSDESW =      0 F/m
   CJS = 0.0005 F/m^2
   CJD = 0.0005 F/m^2
   CJSWS =  5e-10 F/m
   CJSWD =  5e-10 F/m
   CJSWGS =      0 F/m
   CJSWGD =      0 F/m
   PBS =      1 V
   PBD =      1 V
   PBSWS =      1 V
   PBSWD =      1 V
   PBSWGS =      1 V
   PBSWGD =      1 V
   MJS, =    0.5 
   MJD =    0.5 
   MJSWS =   0.33 
   MJSWD =   0.33 
   MJSWGS =   0.33 
   MJSWGD =   0.33 
   SJS =      0 
   SJD =      0 
   SJSWS =      0 
   SJSWD =      0 
   SJSWGS =      0 
   SJSWGD =      0 
   MJS2 =  0.125 
   MJD2 =  0.125 
   MJSWS2 =   0.33 
   MJSWD2 =   0.33 
   MJSWGS2 =   0.33 
   MJSWGD2 =   0.33 
   JSS = 0.0001 A/m^2
   JSD = 0.0001 A/m^2
   JSWS =      0 A/m
   JSWD =      0 A/m
   JSWGS =      0 A/m
   JSWGD =      0 A/m
   NJS =      1 
   NJD =      1 
   IJTHSFWD =    0.1 A
   IJTHDFWD =    0.1 A
   IJTHSREV =    0.1 A
   IJTHDREV =    0.1 A
   BVS =     10 V
   BVD =     10 V
   XJBVS =      1 
   XJBVD =      1 
   JTSS =      0 A/m^2
   JTSD =      0 A/m^2
   JTSSWS =      0 A/m
   JTSSWD =      0 A/m
   JTSSWGS =      0 A/m
   JTSSWGD =      0 A/m
   JTWEFF =      0 m
   NJTS =     20 
   NJTSD =     20 
   NJTSSW =     20 
   NJTSSWD =     20 
   NJTSSWG =     20 
   NJTSSWGD =     20 
   VTSS =     10 V
   VTSD =     10 V
   VTSSWS =     10 V
   VTSSWD =     10 V
   VTSSWGS =     10 V
   VTSSWGD =     10 V
   LINTIGEN =      0 m
   NTGEN =      1 
   AIGEN =      0 m^-3V^-1
   BIGEN =      0 m^-3V^-3
   XRCRG1 =     12 
   XRCRG2 =      1 
   NSEG = 5 
   EF =      1 
   EM = 4.1e+07 V/m
   NOIA = 6.25e+39 eV^-1s^1-EFm^-3
   NOIB = 3.125e+24 eV^-1s^1-EFm^-1
   NOIC = 8.75e+07 eV^-1s^1-EFm
   NTNOI =      1 
   TNOM =  300.1 K
   TBGASUB = 0.000702 eV/K
   TBGBSUB =   1108 K
   KT1 =      0 V
   KT1L =      0 Vm
   IIT =   -0.5 
   TII =      0 
   TGIDL = -0.0003 K^-1
   IGT =    2.5 
   TCJ =      0 K^-1
   TCJSW =      0 K^-1
   TCJSWG =      0 K^-1
   TPB =      0 K^-1
   TPBSW =      0 K^-1
   TPBSWG =      0 K^-1
   XTIS =      3 
   XTID =      3 
   XTSS =   0.02 
   XTSD =   0.02 
   XTSSWS =   0.02 
   XTSSWD =   0.02 
   XTSSWGS =   0.02 
   XTSSWGD =   0.02 
   TNJTS =      0 
   TNJTSD =      0 
   TNJTSSW =      0 
   TNJTSSWD =      0 
   TNJTSSWG =      0 
   TNJTSSWGD =      0 
   RTH0 =   0.01 ohm
   CTH0 =  1e-05 F
   WTH0 =      0 m
   LNBODY =      0 
   NNBODY =      0 
   PNBODY =      0 
   LPHIG =      0 
   NPHIG =      0 
   PPHIG =      0 
   LNGATE =      0 
   NNGATE =      0 
   PNGATE =      0 
   LCIT =      0 
   NCIT =      0 
   PCIT =      0 
   LCDSC =      0 
   NCDSC =      0 
   PCDSC =      0 
   LCDSCD =      0 
   NCDSCD =      0 
   PCDSCD =      0 
   LCDSCDR =      0 
   NCDSCDR =      0 
   PCDSCDR =      0 
   LDVT0 =      0 
   NDVT0 =      0 
   PDVT0 =      0 
   LDVT1 =      0 
   NDVT1 =      0 
   PDVT1 =      0 
   LPHIN =      0 
   NPHIN =      0 
   PPHIN =      0 
   LETA0 =      0 
   NETA0 =      0 
   PETA0 =      0 
   LETA0R =      0 
   NETA0R =      0 
   PETA0R =      0 
   LDSUB =      0 
   NDSUB =      0 
   PDSUB =      0 
   LK1RSCE =      0 
   NK1RSCE =      0 
   PK1RSCE =      0 
   LLPE0 =      0 
   NLPE0 =      0 
   PLPE0 =      0 
   LQMFACTOR =      0 
   NQMFACTOR =      0 
   PQMFACTOR =      0 
   LQMTCENIV =      0 
   NQMTCENIV =      0 
   PQMTCENIV =      0 
   LQMTCENCV =      0 
   NQMTCENCV =      0 
   PQMTCENCV =      0 
   LVSAT =      0 
   NVSAT =      0 
   PVSAT =      0 
   LKSATIV =      0 
   NKSATIV =      0 
   PKSATIV =      0 
   LMEXP =      0 
   NMEXP =      0 
   PMEXP =      0 
   LPTWG =      0 
   NPTWG =      0 
   PPTWG =      0 
   LTHETASAT =      0 
   NTHETASAT =      0 
   PTHETASAT =      0 
   LU0 =      0 
   NU0 =      0 
   PU0 =      0 
   LUP =      0 
   NUP =      0 
   PUP =      0 
   LUA =      0 
   NUA =      0 
   PUA =      0 
   LEU =      0 
   NEU =      0 
   PEU =      0 
   LUD =      0 
   NUD =      0 
   PUD =      0 
   LUCS =      0 
   NUCS =      0 
   PUCS =      0 
   LPCLM =      0 
   NPCLM =      0 
   PPCLM =      0 
   LPCLMCV =      0 
   NPCLMCV =      0 
   PPCLMCV =      0 
   LRDSW =      0 
   NRDSW =      0 
   PRDSW =      0 
   LRSW =      0 
   NRSW =      0 
   PRSW =      0 
   LRDW =      0 
   NRDW =      0 
   PRDW =      0 
   LPRWG =      0 
   NPRWG =      0 
   PPRWG =      0 
   LWR =      0 
   NWR =      0 
   PWR =      0 
   LPDIBL1 =      0 
   NPDIBL1 =      0 
   PPDIBL1 =      0 
   LPDIBL2 =      0 
   NPDIBL2 =      0 
   PPDIBL2 =      0 
   LDROUT =      0 
   NDROUT =      0 
   PDROUT =      0 
   LPVAG =      0 
   NPVAG =      0 
   PPVAG =      0 
   LAIGBINV =      0 
   NAIGBINV =      0 
   PAIGBINV =      0 
   LBIGBINV =      0 
   NBIGBINV =      0 
   PBIGBINV =      0 
   LCIGBINV =      0 
   NCIGBINV =      0 
   PCIGBINV =      0 
   LEIGBINV =      0 
   NEIGBINV =      0 
   PEIGBINV =      0 
   LNIGBINV =      0 
   NNIGBINV =      0 
   PNIGBINV =      0 
   LAIGC =      0 
   NAIGC =      0 
   PAIGC =      0 
   LBIGC =      0 
   NBIGC =      0 
   PBIGC =      0 
   LCIGC =      0 
   NCIGC =      0 
   PCIGC =      0 
   LNIGC =      0 
   NNIGC =      0 
   PNIGC =      0 
   LAIGS =      0 
   NAIGS =      0 
   PAIGS =      0 
   LBIGS =      0 
   NBIGS =      0 
   PBIGS =      0 
   LCIGS =      0 
   NCIGS =      0 
   PCIGS =      0 
   LAIGD =      0 
   NAIGD =      0 
   PAIGD =      0 
   LBIGD =      0 
   NBIGD =      0 
   PBIGD =      0 
   LCIGD =      0 
   NCIGD =      0 
   PCIGD =      0 
   LPOXEDGE =      0 
   NPOXEDGE =      0 
   PPOXEDGE =      0 
   LAGIDL =      0 
   NAGIDL =      0 
   PAGIDL =      0 
   LBGIDL =      0 
   NBGIDL =      0 
   PBGIDL =      0 
   LEGIDL =      0 
   NEGIDL =      0 
   PEGIDL =      0 
   LAGISL =      0 
   NAGISL =      0 
   PAGISL =      0 
   LBGISL =      0 
   NBGISL =      0 
   PBGISL =      0 
   LEGISL =      0 
   NEGISL =      0 
   PEGISL =      0 
   LALPHA0 =      0 
   NALPHA0 =      0 
   PALPHA0 =      0 
   LALPHA1 =      0 
   NALPHA1 =      0 
   PALPHA1 =      0 
   LBETA0 =      0 
   NBETA0 =      0 
   PBETA0 =      0 
   LALPHAII =      0 
   NALPHAII =      0 
   PALPHAII =      0 
   LBETAII0 =      0 
   NBETAII0 =      0 
   PBETAII0 =      0 
   LBETAII1 =      0 
   NBETAII1 =      0 
   PBETAII1 =      0 
   LBETAII2 =      0 
   NBETAII2 =      0 
   PBETAII2 =      0 
   LESATII =      0 
   NESATII =      0 
   PESATII =      0 
   LLII =      0 
   NLII =      0 
   PLII =      0 
   LSII0 =      0 
   NSII0 =      0 
   PSII0 =      0 
   LSII1 =      0 
   NSII1 =      0 
   PSII1 =      0 
   LSII2 =      0 
   NSII2 =      0 
   PSII2 =      0 
   LSIID =      0 
   NSIID =      0 
   PSIID =      0 
   LCFS =      0 
   NCFS =      0 
   PCFS =      0 
   LCFD =      0 
   NCFD =      0 
   PCFD =      0 
   LCOVS =      0 
   NCOVS =      0 
   PCOVS =      0 
   LCOVD =      0 
   NCOVD =      0 
   PCOVD =      0 
   LCGSL =      0 
   NCGSL =      0 
   PCGSL =      0 
   LCGDL =      0 
   NCGDL =      0 
   PCGDL =      0 
   LCKAPPAS =      0 
   NCKAPPAS =      0 
   PCKAPPAS =      0 
   LCKAPPAD =      0 
   NCKAPPAD =      0 
   PCKAPPAD =      0 
   LCGBL =      0 
   NCGBL =      0 
   PCGBL =      0 
   LCKAPPAB =      0 
   NCKAPPAB =      0 
   PCKAPPAB =      0 
   LNTGEN =      0 
   NNTGEN =      0 
   PNTGEN =      0 
   LAIGEN =      0 
   NAIGEN =      0 
   PAIGEN =      0 
   LBIGEN =      0 
   NBIGEN =      0 
   PBIGEN =      0 
   LXRCRG1 =      0 
   NXRCRG1 =      0 
   PXRCRG1 =      0 
   LXRCRG2 =      0 
   NXRCRG2 =      0 
   PXRCRG2 =      0 
   LINTNOI =      0 
   NINTNOI =      0 
   PINTNOI =      0 
   LUTE =      0 
   NUTE =      0 
   PUTE =      0 
   LUTL =      0 
   NUTL =      0 
   PUTL =      0 
   LUA1 =      0 
   NUA1 =      0 
   PUA1 =      0 
   LUD1 =      0 
   NUD1 =      0 
   PUD1 =      0 
   LUCSTE =      0 
   NUCSTE =      0 
   PUCSTE =      0 
   LPTWGT =      0 
   NPTWGT =      0 
   PPTWGT =      0 
   LAT =      0 
   NAT =      0 
   PAT =      0 
   LSTTHETASAT =      0 
   NSTTHETASAT =      0 
   PSTTHETASAT =      0 
   LPRT =      0 
   NPRT =      0 
   PPRT =      0 
   LIIT =      0 
   NIIT =      0 
   PIIT =      0 
   LTII =      0 
   NTII =      0 
   PTII =      0 
   LTGIDL =      0 
   NTGIDL =      0 
   PTGIDL =      0 
   LIGT =      0 
   NIGT =      0 
   PIGT =      0 
   L =  2e-08 m
   D =  4e-08 m
   TFIN = 1.2e-08 m
   FPITCH = 4.2e-08 m
   NF = 1 
   NFIN = 1 
   NGCON = 1 
   ASEO =      0 m^2
   ADEO =      0 m^2
   PSEO =      0 m
   PDEO =      0 m
   ASEJ =      0 m^2
   ADEJ =      0 m^2
   PSEJ =      0 m
   PDEJ =      0 m
   CGSP =      0 F
   CGDP =      0 F
   CDSP =      0 F
   NRS =      0 
   NRD =      0 
   LRSD =  2e-08 m
   XL =      0 m
   DELVTRAND =      0 
   U0MULT =      1 
   IDS0MULT =      1 
   Lmin =  1e-08 m
   Lmax =  3e-08 m
   NFINmin = 0 
   NFINmax = 1 
   LVSAT1 =      0 
   NVSAT1 =      0 
   PVSAT1 =      0 
   LETAMOB =      0 
   NETAMOB =      0 
   PETAMOB =      0 
   LPCLMG =      0 
   NPCLMG =      0 
   PPCLMG =      0 
   LVASAT =      0 
   NVASAT =      0 
   PVASAT =      0 
   LAIGBACC =      0 
   NAIGBACC =      0 
   PAIGBACC =      0 
   LBIGBACC =      0 
   NBIGBACC =      0 
   PBIGBACC =      0 
   LCIGBACC =      0 
   NCIGBACC =      0 
   PCIGBACC =      0 
   LNIGBACC =      0 
   NNIGBACC =      0 
   PNIGBACC =      0 
  **info** (ptm16lstp.sp:8) DC voltage reset to initial transient source value              in source        0:vin_0               new dc=  0.8500D+00
  
 **warning**  No DC path to ground from node        0:outin_30         defined in subckt 0               ; Connected by HSPICE with gdcpath


      
 **info** set option symb=1 internally to help for convergence.
 *****************************************************************
 ******  option summary
 ******
 runlvl  = 3         bypass  = 2         
  Opening plot unit= 15
 file=ptm16lstp.pa0                                                            

1****** HSPICE -- F-2011.09-SP2 64-BIT (Feb 27 2012) linux ******               
 ******  
 $this uut was automatically generated by:

  ******  operating point information tnom=  25.000 temp=  25.000 *****
 ***** operating point status is voltage   simulation time is     0.     
     node    =voltage       node    =voltage       node    =voltage

 + 0:inb_0   = 850.0000m  0:inb_1   = 850.0000m  0:outb_00 = 849.9993m
 + 0:outb_10 = 849.9993m  0:outin_00= 575.7482n  0:outin_01= 575.7482n
 + 0:outin_10= 849.9994m  0:outin_11= 849.9994m  0:outin_20= 575.7405n
 + 0:outin_21= 575.7405n  0:outin_30=   4.1909m  0:outin_31=   4.1909m
 + 0:vdd     = 850.0000m

 ******  
 $this uut was automatically generated by:

  ******  transient analysis tnom=  25.000 temp=  25.000 *****
 inv_avg_power00=   3.1534u  from=   0.          to=   4.0000n
 peakpower00= 943.3327u    at=   3.1000n
             from=   0.         to=   4.0000n
 inv_avg_power10=  82.1816n  from=   0.          to=   4.0000n
 peakpower10=  29.3713u    at=   3.1123n
             from=   0.         to=   4.0000n
 inv_avg_power01=  61.4155n  from=   0.          to=   4.0000n
 peakpower01=  18.4739u    at=  36.1478p
             from=   0.         to=   4.0000n
 inv_avg_power11=  21.2337n  from=   0.          to=   4.0000n
 peakpower11=  14.1590u    at=  40.1612p
             from=   0.         to=   4.0000n
 uut_grid_avg_power=   3.3182u  from=   0.          to=   4.0000n
 uut_grid_max_power= 943.3913u    at=   3.1000n
             from=   0.         to=   4.0000n
 source_power=   4.1825u  from=   0.          to=   4.0000n
 trf_delay_001=   5.1170p  targ=  38.5937p   trig=  33.4768p
 tfr_delay_001=   5.7982p  targ=   1.0864n   trig=   1.0806n
 trf_delay_002=   5.4441p  targ=   2.0367n   trig=   2.0313n
 tfr_delay_002=   5.1499p  targ=   3.0863n   trig=   3.0811n
 trf_delay_101=   2.8928p  targ=   1.0893n   trig=   1.0864n
 tfr_delay_101=   2.3167p  targ=  40.9104p   trig=  38.5937p
 trf_delay_102=   3.8379p  targ=   3.0901n   trig=   3.0863n
 tfr_delay_102=   3.1108p  targ=   2.0398n   trig=   2.0367n
 trf_delay_011=   5.1170p  targ=  38.5937p   trig=  33.4768p
 tfr_delay_011=   4.9710p  targ=   2.0881n   trig=   2.0832n
 trf_delay_111=   1.1742p  targ=   2.0893n   trig=   2.0881n
 tfr_delay_111=   2.3167p  targ=  40.9104p   trig=  38.5937p
x

        time    voltage      voltage    
                 outin_00     outin_10  
    0.          575.7482n    849.9994m  
   10.00000p     -4.3688m    850.0177m  
   20.00000p     20.0843m    851.0853m  
   30.00000p    263.7386m    844.1492m  
   40.00000p    757.1957m    294.2089m  
   50.00000p    844.9039m      1.9657m  
   60.00000p    850.0080m     25.6551u  
   70.00000p    849.9899m    -42.3467u  
   80.00000p    849.9992m     -3.8224u  
   90.00000p    850.0084m     34.7020u  
  100.00000p    850.0067m     28.9950u  
  110.00000p    850.0022m     12.2274u  
  120.00000p    849.9976m     -4.5403u  
  130.00000p    849.9931m    -21.3079u  
  140.00000p    849.9886m    -38.0755u  
  150.00000p    849.9898m    -33.9780u  
  160.00000p    849.9919m    -26.4846u  
  170.00000p    849.9940m    -18.9911u  
  180.00000p    849.9961m    -11.4976u  
  190.00000p    849.9982m     -4.0042u  
  200.00000p    850.0003m      3.4893u  
  210.00000p    850.0024m     10.9827u  
  220.00000p    850.0045m     18.4762u  
  230.00000p    850.0066m     25.9697u  
  240.00000p    850.0087m     33.4631u  
  250.00000p    850.0109m     40.9566u  
  260.00000p    850.0098m     37.3020u  
  270.00000p    850.0086m     33.2476u  
  280.00000p    850.0075m     29.1931u  
  290.00000p    850.0063m     25.1387u  
  300.00000p    850.0052m     21.0843u  
  310.00000p    850.0040m     17.0299u  
  320.00000p    850.0028m     12.9754u  
  330.00000p    850.0017m      8.9210u  
  340.00000p    850.0005m      4.8666u  
  350.00000p    849.9993m    812.1664n  
  360.00000p    849.9982m     -3.2423u  
  370.00000p    849.9970m     -7.2967u  
  380.00000p    849.9959m    -11.3511u  
  390.00000p    849.9947m    -15.4055u  
  400.00000p    849.9935m    -19.4600u  
  410.00000p    849.9924m    -23.5144u  
  420.00000p    849.9912m    -27.5688u  
  430.00000p    849.9900m    -31.6232u  
  440.00000p    849.9889m    -35.6777u  
  450.00000p    849.9877m    -39.7321u  
  460.00000p    849.9888m    -35.9767u  
  470.00000p    849.9900m    -31.9412u  
  480.00000p    849.9912m    -27.9056u  
  490.00000p    849.9923m    -23.8701u  
  500.00000p    849.9935m    -19.8346u  
  510.00000p    849.9947m    -15.7991u  
  520.00000p    849.9958m    -11.7636u  
  530.00000p    849.9970m     -7.7280u  
  540.00000p    849.9982m     -3.6925u  
  550.00000p    849.9994m      0.       
  560.00000p    850.0005m      4.3785u  
  570.00000p    850.0017m      8.4140u  
  580.00000p    850.0029m     12.4495u  
  590.00000p    850.0040m     16.4851u  
  600.00000p    850.0052m     20.5206u  
  610.00000p    850.0064m     24.5561u  
  620.00000p    850.0076m     28.5916u  
  630.00000p    850.0087m     32.6271u  
  640.00000p    850.0099m     36.6626u  
  650.00000p    850.0111m     40.6982u  
  660.00000p    850.0100m     36.9601u  
  670.00000p    850.0088m     32.9433u  
  680.00000p    850.0076m     28.9265u  
  690.00000p    850.0064m     24.9097u  
  700.00000p    850.0053m     20.8928u  
  710.00000p    850.0041m     16.8760u  
  720.00000p    850.0029m     12.8592u  
  730.00000p    850.0017m      8.8424u  
  740.00000p    850.0005m      4.8255u  
  750.00000p    849.9993m    808.7121n  
  760.00000p    849.9982m     -3.2081u  
  770.00000p    849.9970m     -7.2249u  
  780.00000p    849.9958m    -11.2418u  
  790.00000p    849.9946m    -15.2586u  
  800.00000p    849.9934m    -19.2754u  
  810.00000p    849.9923m    -23.2922u  
  820.00000p    849.9911m    -27.3091u  
  830.00000p    849.9899m    -31.3259u  
  840.00000p    849.9887m    -35.3427u  
  850.00000p    849.9875m    -39.3595u  
  860.00000p    849.9887m    -35.6320u  
  870.00000p    849.9898m    -31.6267u  
  880.00000p    849.9910m    -27.6215u  
  890.00000p    849.9922m    -23.6162u  
  900.00000p    849.9934m    -19.6109u  
  910.00000p    849.9946m    -15.6057u  
  920.00000p    849.9958m    -11.6004u  
  930.00000p    849.9970m     -7.5951u  
  940.00000p    849.9982m     -3.5899u  
  950.00000p    849.9994m      0.       
  960.00000p    850.0006m      4.4207u  
  970.00000p    850.0018m      8.4259u  
  980.00000p    850.0029m     12.4312u  
  990.00000p    850.0041m     16.4365u  
    1.00000n    850.0053m     20.4418u  
    1.01000n    850.0065m     24.4470u  
    1.02000n    850.0077m     28.4523u  
    1.03000n    850.0089m     32.4576u  
    1.04000n    850.0101m     36.4628u  
    1.05000n    850.0113m     40.4681u  
    1.06000n    856.0647m     55.3060u  
    1.07000n    744.0276m      6.4061m  
    1.08000n    448.4529m     23.5434m  
    1.09000n     37.1954m    659.7135m  
    1.10000n      4.2710m    849.8801m  
    1.11000n    -10.8362u    850.0016m  
    1.12000n      3.0401u    849.9988m  
    1.13000n    -15.7366u    849.9987m  
    1.14000n      2.4013u    849.9996m  
    1.15000n     20.5393u    850.0005m  
    1.16000n     20.0664u    850.0004m  
    1.17000n     14.2505u    850.0001m  
    1.18000n      8.4346u    849.9998m  
    1.19000n      2.6187u    849.9994m  
    1.20000n     -3.1972u    849.9991m  
    1.21000n     -9.0131u    849.9988m  
    1.22000n    -14.8290u    849.9985m  
    1.23000n    -20.6449u    849.9981m  
    1.24000n    -20.6155u    849.9981m  
    1.25000n    -17.8099u    849.9983m  
    1.26000n    -15.0043u    849.9985m  
    1.27000n    -12.1986u    849.9986m  
    1.28000n     -9.3930u    849.9988m  
    1.29000n     -6.5873u    849.9989m  
    1.30000n     -3.7817u    849.9991m  
    1.31000n   -976.0778n    849.9993m  
    1.32000n      1.8296u    849.9994m  
    1.33000n      4.6352u    849.9996m  
    1.34000n      7.4408u    849.9998m  
    1.35000n     10.2465u    849.9999m  
    1.36000n     13.0521u    850.0001m  
    1.37000n     15.8577u    850.0002m  
    1.38000n     18.6634u    850.0004m  
    1.39000n     21.4690u    850.0006m  
    1.40000n     22.3881u    850.0006m  
    1.41000n     20.1406u    850.0005m  
    1.42000n     17.8931u    850.0004m  
    1.43000n     15.6456u    850.0002m  
    1.44000n     13.3981u    850.0001m  
    1.45000n     11.1505u    850.0000m  
    1.46000n      8.9030u    849.9998m  
    1.47000n      6.6555u    849.9997m  
    1.48000n      4.4080u    849.9996m  
    1.49000n      2.1605u    849.9994m  
    1.50000n      0.         849.9993m  
    1.51000n     -2.3346u    849.9992m  
    1.52000n     -4.5821u    849.9990m  
    1.53000n     -6.8296u    849.9989m  
    1.54000n     -9.0771u    849.9988m  
    1.55000n    -11.3247u    849.9986m  
    1.56000n    -13.5722u    849.9985m  
    1.57000n    -15.8197u    849.9984m  
    1.58000n    -18.0672u    849.9983m  
    1.59000n    -20.3147u    849.9981m  
    1.60000n    -20.8972u    849.9981m  
    1.61000n    -18.6848u    849.9982m  
    1.62000n    -16.4724u    849.9984m  
    1.63000n    -14.2600u    849.9985m  
    1.64000n    -12.0476u    849.9986m  
    1.65000n     -9.8351u    849.9987m  
    1.66000n     -7.6227u    849.9989m  
    1.67000n     -5.4103u    849.9990m  
    1.68000n     -3.1979u    849.9991m  
    1.69000n   -985.4888n    849.9993m  
    1.70000n      1.2269u    849.9994m  
    1.71000n      3.4393u    849.9995m  
    1.72000n      5.6518u    849.9997m  
    1.73000n      7.8642u    849.9998m  
    1.74000n     10.0766u    849.9999m  
    1.75000n     12.2890u    850.0001m  
    1.76000n     14.5014u    850.0002m  
    1.77000n     16.7138u    850.0003m  
    1.78000n     18.9262u    850.0004m  
    1.79000n     21.1386u    850.0006m  
    1.80000n     21.7269u    850.0006m  
    1.81000n     19.5887u    850.0005m  
    1.82000n     17.4506u    850.0004m  
    1.83000n     15.3125u    850.0002m  
    1.84000n     13.1744u    850.0001m  
    1.85000n     11.0362u    850.0000m  
    1.86000n      8.8981u    849.9998m  
    1.87000n      6.7600u    849.9997m  
    1.88000n      4.6219u    849.9996m  
    1.89000n      2.4838u    849.9995m  
    1.90000n      0.         849.9993m  
    1.91000n     -1.7925u    849.9992m  
    1.92000n     -3.9306u    849.9991m  
    1.93000n     -6.0687u    849.9989m  
    1.94000n     -8.2068u    849.9988m  
    1.95000n    -10.3450u    849.9987m  
    1.96000n    -12.4831u    849.9986m  
    1.97000n    -14.6212u    849.9984m  
    1.98000n    -16.7593u    849.9983m  
    1.99000n    -18.8974u    849.9982m  
    2.00000n    -21.0356u    849.9981m  
    2.01000n     -4.5624m    849.9426m  
    2.02000n    101.7374m    846.1118m  
    2.03000n    380.2564m    835.5740m  
    2.04000n    774.3506m    201.9042m  
    2.05000n    844.2804m    152.8583u  
    2.06000n    850.0070m    926.3213n  
    2.07000n    850.0087m      2.6293u  
    2.08000n    850.0193m      5.2544u  
    2.09000n    850.0003m      0.       
    2.10000n    849.9994m    631.6997n  
    2.11000n    849.9994m    574.7951n  
    2.12000n    849.9994m    576.2726n  
    2.13000n    849.9994m    574.7670n  
    2.14000n    849.9994m    575.1866n  
    2.15000n    849.9994m    575.7158n  
    2.16000n    849.9994m    576.2449n  
    2.17000n    849.9994m    576.7740n  
    2.18000n    849.9994m    576.6808n  
    2.19000n    849.9994m    576.4632n  
    2.20000n    849.9994m    576.2455n  
    2.21000n    849.9994m    576.0278n  
    2.22000n    849.9994m    575.8102n  
    2.23000n    849.9994m    575.5925n  
    2.24000n    849.9994m    575.3748n  
    2.25000n    849.9994m    575.1572n  
    2.26000n    849.9994m    574.9395n  
    2.27000n    849.9994m    574.7218n  
    2.28000n    849.9994m    574.8159n  
    2.29000n    849.9994m    574.9228n  
    2.30000n    849.9994m    575.0296n  
    2.31000n    849.9994m    575.1365n  
    2.32000n    849.9994m    575.2433n  
    2.33000n    849.9994m    575.3502n  
    2.34000n    849.9994m    575.4570n  
    2.35000n    849.9994m    575.5639n  
    2.36000n    849.9994m    575.6707n  
    2.37000n    849.9994m    575.7776n  
    2.38000n    849.9994m    575.8845n  
    2.39000n    849.9994m    575.9913n  
    2.40000n    849.9994m    576.0982n  
    2.41000n    849.9994m    576.2050n  
    2.42000n    849.9994m    576.3119n  
    2.43000n    849.9994m    576.4187n  
    2.44000n    849.9994m    576.5256n  
    2.45000n    849.9994m    576.6324n  
    2.46000n    849.9994m    576.7393n  
    2.47000n    849.9994m    576.8461n  
    2.48000n    849.9994m    576.7481n  
    2.49000n    849.9994m    576.6416n  
    2.50000n    849.9994m    576.5351n  
    2.51000n    849.9994m    576.4287n  
    2.52000n    849.9994m    576.3222n  
    2.53000n    849.9994m    576.2157n  
    2.54000n    849.9994m    576.1093n  
    2.55000n    849.9994m    576.0028n  
    2.56000n    849.9994m    575.8964n  
    2.57000n    849.9994m    575.7899n  
    2.58000n    849.9994m    575.6834n  
    2.59000n    849.9994m    575.5770n  
    2.60000n    849.9994m    575.4705n  
    2.61000n    849.9994m    575.3641n  
    2.62000n    849.9994m    575.2576n  
    2.63000n    849.9994m    575.1511n  
    2.64000n    849.9994m    575.0447n  
    2.65000n    849.9994m    574.9382n  
    2.66000n    849.9994m    574.8318n  
    2.67000n    849.9994m    574.7253n  
    2.68000n    849.9994m    574.8230n  
    2.69000n    849.9994m    574.9291n  
    2.70000n    849.9994m    575.0352n  
    2.71000n    849.9994m    575.1412n  
    2.72000n    849.9994m    575.2473n  
    2.73000n    849.9994m    575.3534n  
    2.74000n    849.9994m    575.4594n  
    2.75000n    849.9994m    575.5655n  
    2.76000n    849.9994m    575.6716n  
    2.77000n    849.9994m    575.7776n  
    2.78000n    849.9994m    575.8837n  
    2.79000n    849.9994m    575.9898n  
    2.80000n    849.9994m    576.0959n  
    2.81000n    849.9994m    576.2019n  
    2.82000n    849.9994m    576.3080n  
    2.83000n    849.9994m    576.4141n  
    2.84000n    849.9994m    576.5201n  
    2.85000n    849.9994m    576.6262n  
    2.86000n    849.9994m    576.7323n  
    2.87000n    849.9994m    576.8383n  
    2.88000n    849.9994m    576.7295n  
    2.89000n    849.9994m    576.6118n  
    2.90000n    849.9994m    576.4942n  
    2.91000n    849.9994m    576.3765n  
    2.92000n    849.9994m    576.2589n  
    2.93000n    849.9994m    576.1412n  
    2.94000n    849.9994m    576.0236n  
    2.95000n    849.9994m    575.9059n  
    2.96000n    849.9994m    575.7882n  
    2.97000n    849.9994m    575.6706n  
    2.98000n    849.9994m    575.5529n  
    2.99000n    849.9994m    575.4353n  
    3.00000n    849.9994m    575.3176n  
    3.01000n    849.9994m    575.2000n  
    3.02000n    849.9994m    575.0823n  
    3.03000n    849.9994m    574.9647n  
    3.04000n    849.9994m    574.8470n  
    3.05000n    849.9994m    574.7293n  
    3.06000n    856.0962m     51.9409u  
    3.07000n    755.3921m     -1.5414m  
    3.08000n    473.8419m     38.9378m  
    3.09000n     55.4647m    647.7026m  
    3.10000n     -1.0591       3.0797   
    3.11000n   -963.3202m      2.8610   
    3.12000n    -24.2499m    884.8250m  
    3.13000n      8.2987u    850.0094m  
    3.14000n      0.         849.9985m  
    3.15000n      8.5528u    850.0083m  
    3.16000n      2.7180u    850.0017m  
    3.17000n     -3.1169u    849.9951m  
    3.18000n     -8.9517u    849.9886m  
    3.19000n     -7.7466u    849.9899m  
    3.20000n     -5.4563u    849.9925m  
    3.21000n     -3.1659u    849.9951m  
    3.22000n   -875.5583n    849.9977m  
    3.23000n      1.4148u    850.0003m  
    3.24000n      3.7052u    850.0029m  
    3.25000n      5.9955u    850.0055m  
    3.26000n      8.2859u    850.0081m  
    3.27000n     10.5763u    850.0107m  
    3.28000n      9.9856u    850.0100m  
    3.29000n      8.9552u    850.0089m  
    3.30000n      7.9249u    850.0077m  
    3.31000n      6.8945u    850.0065m  
    3.32000n      5.8642u    850.0054m  
    3.33000n      4.8338u    850.0042m  
    3.34000n      3.8035u    850.0030m  
    3.35000n      2.7731u    850.0018m  
    3.36000n      1.7428u    850.0007m  
    3.37000n    712.4465n    849.9995m  
    3.38000n      0.         849.9983m  
    3.39000n     -1.3482u    849.9972m  
    3.40000n     -2.3786u    849.9960m  
    3.41000n     -3.4089u    849.9948m  
    3.42000n     -4.4393u    849.9936m  
    3.43000n     -5.4696u    849.9925m  
    3.44000n     -6.5000u    849.9913m  
    3.45000n     -7.5303u    849.9901m  
    3.46000n     -8.5607u    849.9890m  
    3.47000n     -9.5910u    849.9878m  
    3.48000n     -8.8336u    849.9887m  
    3.49000n     -7.8032u    849.9898m  
    3.50000n     -6.7729u    849.9910m  
    3.51000n     -5.7426u    849.9922m  
    3.52000n     -4.7123u    849.9933m  
    3.53000n     -3.6820u    849.9945m  
    3.54000n     -2.6517u    849.9957m  
    3.55000n     -1.6214u    849.9969m  
    3.56000n   -591.1343n    849.9980m  
    3.57000n      0.         849.9992m  
    3.58000n      1.4695u    850.0004m  
    3.59000n      2.4998u    850.0015m  
    3.60000n      3.5301u    850.0027m  
    3.61000n      4.5604u    850.0039m  
    3.62000n      5.5907u    850.0051m  
    3.63000n      6.6210u    850.0062m  
    3.64000n      7.6513u    850.0074m  
    3.65000n      8.6816u    850.0086m  
    3.66000n      9.7119u    850.0097m  
    3.67000n     10.7422u    850.0109m  
    3.68000n      9.9847u    850.0101m  
    3.69000n      8.9544u    850.0089m  
    3.70000n      7.9241u    850.0077m  
    3.71000n      6.8938u    850.0065m  
    3.72000n      5.8635u    850.0054m  
    3.73000n      4.8332u    850.0042m  
    3.74000n      3.8029u    850.0030m  
    3.75000n      2.7726u    850.0018m  
    3.76000n      1.7423u    850.0007m  
    3.77000n    711.9828n    849.9995m  
    3.78000n      0.         849.9983m  
    3.79000n     -1.3486u    849.9972m  
    3.80000n     -2.3789u    849.9960m  
    3.81000n     -3.4092u    849.9948m  
    3.82000n     -4.4395u    849.9936m  
    3.83000n     -5.4698u    849.9925m  
    3.84000n     -6.5001u    849.9913m  
    3.85000n     -7.5304u    849.9901m  
    3.86000n     -8.5607u    849.9889m  
    3.87000n     -9.5910u    849.9878m  
    3.88000n     -8.3378u    849.9892m  
    3.89000n     -6.7361u    849.9910m  
    3.90000n     -5.1344u    849.9929m  
    3.91000n     -3.5326u    849.9947m  
    3.92000n     -1.9309u    849.9965m  
    3.93000n      0.         849.9983m  
    3.94000n      1.2725u    850.0001m  
    3.95000n      2.8742u    850.0020m  
    3.96000n      4.4760u    850.0038m  
    3.97000n      6.0777u    850.0056m  
    3.98000n      7.6794u    850.0074m  
    3.99000n      9.2811u    850.0093m  
    4.00000n     10.8829u    850.0111m  
y
x

        time    voltage      voltage    
                 outin_10     outin_20  
    0.          849.9994m    575.7405n  
   10.00000p    850.0177m     10.2114u  
   20.00000p    851.0853m     33.4295u  
   30.00000p    844.1492m   -776.3058u  
   40.00000p    294.2089m    202.9581m  
   50.00000p      1.9657m    854.2689m  
   60.00000p     25.6551u    850.0475m  
   70.00000p    -42.3467u    849.9238m  
   80.00000p     -3.8224u    849.9930m  
   90.00000p     34.7020u    850.0622m  
  100.00000p     28.9950u    850.0513m  
  110.00000p     12.2274u    850.0203m  
  120.00000p     -4.5403u    849.9894m  
  130.00000p    -21.3079u    849.9585m  
  140.00000p    -38.0755u    849.9275m  
  150.00000p    -33.9780u    849.9352m  
  160.00000p    -26.4846u    849.9492m  
  170.00000p    -18.9911u    849.9632m  
  180.00000p    -11.4976u    849.9772m  
  190.00000p     -4.0042u    849.9911m  
  200.00000p      3.4893u    850.0051m  
  210.00000p     10.9827u    850.0191m  
  220.00000p     18.4762u    850.0331m  
  230.00000p     25.9697u    850.0470m  
  240.00000p     33.4631u    850.0610m  
  250.00000p     40.9566u    850.0750m  
  260.00000p     37.3020u    850.0681m  
  270.00000p     33.2476u    850.0605m  
  280.00000p     29.1931u    850.0529m  
[...]
    3.65000n    575.7482n    849.9994m  
    3.66000n    575.7482n    849.9994m  
    3.67000n    575.7482n    849.9994m  
    3.68000n    575.7482n    849.9994m  
    3.69000n    575.7482n    849.9994m  
    3.70000n    575.7482n    849.9994m  
    3.71000n    575.7482n    849.9994m  
    3.72000n    575.7482n    849.9994m  
    3.73000n    575.7482n    849.9994m  
    3.74000n    575.7482n    849.9994m  
    3.75000n    575.7482n    849.9994m  
    3.76000n    575.7482n    849.9994m  
    3.77000n    575.7482n    849.9994m  
    3.78000n    575.7482n    849.9994m  
    3.79000n    575.7482n    849.9994m  
    3.80000n    575.7482n    849.9994m  
    3.81000n    575.7482n    849.9994m  
    3.82000n    575.7482n    849.9994m  
    3.83000n    575.7482n    849.9994m  
    3.84000n    575.7482n    849.9994m  
    3.85000n    575.7482n    849.9994m  
    3.86000n    575.7482n    849.9994m  
    3.87000n    575.7482n    849.9994m  
    3.88000n    575.7482n    849.9994m  
    3.89000n    575.7482n    849.9994m  
    3.90000n    575.7482n    849.9994m  
    3.91000n    575.7482n    849.9994m  
    3.92000n    575.7482n    849.9994m  
    3.93000n    575.7482n    849.9994m  
    3.94000n    575.7482n    849.9994m  
    3.95000n    575.7482n    849.9994m  
    3.96000n    575.7482n    849.9994m  
    3.97000n    575.7482n    849.9994m  
    3.98000n    575.7482n    849.9994m  
    3.99000n    575.7482n    849.9994m  
    4.00000n    575.7482n    849.9994m  
y
x

        time    voltage      voltage    
                 outin_11     outin_21  
    0.          849.9994m    575.7405n  
   10.00000p    850.0177m     10.2114u  
   20.00000p    851.0853m     33.4295u  
   30.00000p    844.1492m   -776.3058u  
   40.00000p    294.2089m    202.9581m  
   50.00000p      1.9657m    854.2689m  
   60.00000p     25.6551u    850.0475m  
   70.00000p    -42.3467u    849.9238m  
   80.00000p     -3.8224u    849.9930m  
   90.00000p     34.7020u    850.0622m  
  100.00000p     28.9950u    850.0513m  
  110.00000p     12.2274u    850.0203m  
  120.00000p     -4.5403u    849.9894m  
  130.00000p    -21.3079u    849.9585m  
  140.00000p    -38.0755u    849.9275m  
  150.00000p    -33.9780u    849.9352m  
  160.00000p    -26.4846u    849.9492m  
  170.00000p    -18.9911u    849.9632m  
  180.00000p    -11.4976u    849.9772m  
  190.00000p     -4.0042u    849.9911m  
  200.00000p      3.4893u    850.0051m  
  210.00000p     10.9827u    850.0191m  
  220.00000p     18.4762u    850.0331m  
  230.00000p     25.9697u    850.0470m  
  240.00000p     33.4631u    850.0610m  
  250.00000p     40.9566u    850.0750m  
  260.00000p     37.3020u    850.0681m  
  270.00000p     33.2476u    850.0605m  
  280.00000p     29.1931u    850.0529m  
  290.00000p     25.1387u    850.0453m  
  300.00000p     21.0843u    850.0377m  
  310.00000p     17.0299u    850.0301m  
  320.00000p     12.9754u    850.0225m  
  330.00000p      8.9210u    850.0149m  
  340.00000p      4.8666u    850.0073m  
  350.00000p    812.1664n    849.9997m  
  360.00000p     -3.2423u    849.9921m  
  370.00000p     -7.2967u    849.9845m  
  380.00000p    -11.3511u    849.9769m  
  390.00000p    -15.4055u    849.9693m  
  400.00000p    -19.4600u    849.9617m  
  410.00000p    -23.5144u    849.9541m  
  420.00000p    -27.5688u    849.9465m  
  430.00000p    -31.6232u    849.9389m  
  440.00000p    -35.6777u    849.9313m  
  450.00000p    -39.7321u    849.9237m  
  460.00000p    -35.9767u    849.9308m  
  470.00000p    -31.9412u    849.9384m  
  480.00000p    -27.9056u    849.9460m  
  490.00000p    -23.8701u    849.9536m  
  500.00000p    -19.8346u    849.9612m  
  510.00000p    -15.7991u    849.9688m  
  520.00000p    -11.7636u    849.9763m  
  530.00000p     -7.7280u    849.9839m  
  540.00000p     -3.6925u    849.9915m  
  550.00000p      0.         849.9991m  
  560.00000p      4.3785u    850.0067m  
  570.00000p      8.4140u    850.0143m  
  580.00000p     12.4495u    850.0219m  
  590.00000p     16.4851u    850.0295m  
  600.00000p     20.5206u    850.0371m  
  610.00000p     24.5561u    850.0447m  
  620.00000p     28.5916u    850.0522m  
  630.00000p     32.6271u    850.0598m  
  640.00000p     36.6626u    850.0674m  
  650.00000p     40.6982u    850.0750m  
  660.00000p     36.9601u    850.0680m  
  670.00000p     32.9433u    850.0604m  
  680.00000p     28.9265u    850.0528m  
  690.00000p     24.9097u    850.0452m  
  700.00000p     20.8928u    850.0376m  
  710.00000p     16.8760u    850.0301m  
  720.00000p     12.8592u    850.0225m  
  730.00000p      8.8424u    850.0149m  
  740.00000p      4.8255u    850.0073m  
  750.00000p    808.7121n    849.9997m  
  760.00000p     -3.2081u    849.9922m  
  770.00000p     -7.2249u    849.9846m  
  780.00000p    -11.2418u    849.9770m  
  790.00000p    -15.2586u    849.9694m  
  800.00000p    -19.2754u    849.9618m  
  810.00000p    -23.2922u    849.9542m  
  820.00000p    -27.3091u    849.9467m  
  830.00000p    -31.3259u    849.9391m  
  840.00000p    -35.3427u    849.9315m  
  850.00000p    -39.3595u    849.9239m  
  860.00000p    -35.6320u    849.9310m  
  870.00000p    -31.6267u    849.9386m  
  880.00000p    -27.6215u    849.9462m  
  890.00000p    -23.6162u    849.9537m  
  900.00000p    -19.6109u    849.9613m  
  910.00000p    -15.6057u    849.9689m  
  920.00000p    -11.6004u    849.9765m  
  930.00000p     -7.5951u    849.9841m  
  940.00000p     -3.5899u    849.9917m  
  950.00000p      0.         849.9992m  
  960.00000p      4.4207u    850.0068m  
  970.00000p      8.4259u    850.0144m  
  980.00000p     12.4312u    850.0220m  
  990.00000p     16.4365u    850.0296m  
    1.00000n     20.4418u    850.0372m  
    1.01000n     24.4470u    850.0447m  
    1.02000n     28.4523u    850.0523m  
    1.03000n     32.4576u    850.0599m  
    1.04000n     36.4628u    850.0675m  
    1.05000n     40.4681u    850.0751m  
    1.06000n      0.         849.9991m  
    1.07000n   -956.5940n    849.9981m  
    1.08000n      1.2251u    850.0002m  
    1.09000n      0.         849.9989m  
    1.10000n    565.4579n    849.9994m  
    1.11000n    575.7344n    849.9994m  
    1.12000n    575.7415n    849.9994m  
    1.13000n    575.6130n    849.9994m  
    1.14000n    575.7869n    849.9994m  
    1.15000n    575.9608n    849.9994m  
    1.16000n    575.9535n    849.9994m  
    1.17000n    575.8941n    849.9994m  
    1.18000n    575.8348n    849.9994m  
    1.19000n    575.7754n    849.9994m  
    1.20000n    575.7160n    849.9994m  
    1.21000n    575.6567n    849.9994m  
    1.22000n    575.5973n    849.9994m  
    1.23000n    575.5379n    849.9994m  
    1.24000n    575.5387n    849.9994m  
    1.25000n    575.5681n    849.9994m  
    1.26000n    575.5975n    849.9994m  
    1.27000n    575.6268n    849.9994m  
    1.28000n    575.6562n    849.9994m  
    1.29000n    575.6856n    849.9994m  
    1.30000n    575.7149n    849.9994m  
    1.31000n    575.7443n    849.9994m  
    1.32000n    575.7737n    849.9994m  
    1.33000n    575.8030n    849.9994m  
    1.34000n    575.8324n    849.9994m  
    1.35000n    575.8618n    849.9994m  
    1.36000n    575.8912n    849.9994m  
    1.37000n    575.9205n    849.9994m  
    1.38000n    575.9499n    849.9994m  
    1.39000n    575.9793n    849.9994m  
    1.40000n    575.9887n    849.9994m  
    1.41000n    575.9649n    849.9994m  
    1.42000n    575.9410n    849.9994m  
    1.43000n    575.9171n    849.9994m  
    1.44000n    575.8932n    849.9994m  
    1.45000n    575.8693n    849.9994m  
    1.46000n    575.8454n    849.9994m  
    1.47000n    575.8216n    849.9994m  
    1.48000n    575.7977n    849.9994m  
    1.49000n    575.7738n    849.9994m  
    1.50000n    575.7499n    849.9994m  
    1.51000n    575.7260n    849.9994m  
    1.52000n    575.7021n    849.9994m  
    1.53000n    575.6783n    849.9994m  
    1.54000n    575.6544n    849.9994m  
    1.55000n    575.6305n    849.9994m  
    1.56000n    575.6066n    849.9994m  
    1.57000n    575.5827n    849.9994m  
    1.58000n    575.5589n    849.9994m  
    1.59000n    575.5350n    849.9994m  
    1.60000n    575.5289n    849.9994m  
    1.61000n    575.5527n    849.9994m  
    1.62000n    575.5766n    849.9994m  
    1.63000n    575.6004n    849.9994m  
    1.64000n    575.6242n    849.9994m  
    1.65000n    575.6481n    849.9994m  
    1.66000n    575.6719n    849.9994m  
    1.67000n    575.6957n    849.9994m  
    1.68000n    575.7195n    849.9994m  
    1.69000n    575.7434n    849.9994m  
    1.70000n    575.7672n    849.9994m  
    1.71000n    575.7910n    849.9994m  
    1.72000n    575.8149n    849.9994m  
    1.73000n    575.8387n    849.9994m  
    1.74000n    575.8625n    849.9994m  
    1.75000n    575.8864n    849.9994m  
    1.76000n    575.9102n    849.9994m  
    1.77000n    575.9340n    849.9994m  
    1.78000n    575.9578n    849.9994m  
    1.79000n    575.9817n    849.9994m  
    1.80000n    575.9879n    849.9994m  
    1.81000n    575.9645n    849.9994m  
    1.82000n    575.9412n    849.9994m  
    1.83000n    575.9179n    849.9994m  
    1.84000n    575.8945n    849.9994m  
    1.85000n    575.8712n    849.9994m  
    1.86000n    575.8478n    849.9994m  
    1.87000n    575.8245n    849.9994m  
    1.88000n    575.8012n    849.9994m  
    1.89000n    575.7778n    849.9994m  
    1.90000n    575.7545n    849.9994m  
    1.91000n    575.7311n    849.9994m  
    1.92000n    575.7078n    849.9994m  
    1.93000n    575.6844n    849.9994m  
    1.94000n    575.6611n    849.9994m  
    1.95000n    575.6378n    849.9994m  
    1.96000n    575.6144n    849.9994m  
    1.97000n    575.5911n    849.9994m  
    1.98000n    575.5677n    849.9994m  
    1.99000n    575.5444n    849.9994m  
    2.00000n    575.5210n    849.9994m  
    2.01000n    575.7596n    849.9994m  
    2.02000n    575.7645n    849.9994m  
    2.03000n    575.7555n    849.9994m  
    2.04000n    575.7608n    849.9994m  
    2.05000n    575.7587n    849.9994m  
    2.06000n      6.2314u    849.9987m  
    2.07000n   -794.2191u    849.9250m  
    2.08000n    120.6931m    856.7672m  
    2.09000n    558.5435m    322.9236m  
    2.10000n    849.8482m   -196.9863u  
    2.11000n    850.0475m    -29.0255u  
    2.12000n    849.9861m     11.9057u  
    2.13000n    850.0173m    -19.8374u  
    2.14000n    850.0104m    -11.5954u  
    2.15000n    850.0014m     -1.0802u  
    2.16000n    849.9924m      9.4350u  
    2.17000n    849.9834m     19.9502u  
    2.18000n    849.9848m     18.1696u  
    2.19000n    849.9882m     13.9293u  
    2.20000n    849.9917m      9.6890u  
    2.21000n    849.9951m      5.4486u  
    2.22000n    849.9986m      1.2083u  
    2.23000n    850.0020m     -3.0320u  
    2.24000n    850.0055m     -7.2724u  
    2.25000n    850.0089m    -11.5127u  
    2.26000n    850.0124m    -15.7531u  
    2.27000n    850.0158m    -19.9934u  
    2.28000n    850.0144m    -18.1772u  
    2.29000n    850.0127m    -16.1131u  
    2.30000n    850.0111m    -14.0489u  
    2.31000n    850.0095m    -11.9847u  
    2.32000n    850.0078m     -9.9205u  
    2.33000n    850.0062m     -7.8563u  
    2.34000n    850.0045m     -5.7921u  
    2.35000n    850.0029m     -3.7279u  
    2.36000n    850.0013m     -1.6637u  
    2.37000n    849.9996m      0.       
    2.38000n    849.9980m      2.4647u  
    2.39000n    849.9963m      4.5289u  
    2.40000n    849.9947m      6.5931u  
    2.41000n    849.9930m      8.6573u  
    2.42000n    849.9914m     10.7214u  
    2.43000n    849.9898m     12.7856u  
    2.44000n    849.9881m     14.8498u  
    2.45000n    849.9865m     16.9140u  
    2.46000n    849.9848m     18.9782u  
    2.47000n    849.9832m     21.0424u  
    2.48000n    849.9847m     19.1589u  
    2.49000n    849.9863m     17.1137u  
    2.50000n    849.9879m     15.0685u  
    2.51000n    849.9895m     13.0233u  
    2.52000n    849.9911m     10.9782u  
    2.53000n    849.9927m      8.9330u  
    2.54000n    849.9943m      6.8878u  
    2.55000n    849.9959m      4.8426u  
    2.56000n    849.9975m      2.7974u  
    2.57000n    849.9991m    752.2490n  
    2.58000n    850.0007m     -1.2929u  
    2.59000n    850.0023m     -3.3381u  
    2.60000n    850.0039m     -5.3833u  
    2.61000n    850.0055m     -7.4285u  
    2.62000n    850.0071m     -9.4737u  
    2.63000n    850.0087m    -11.5189u  
    2.64000n    850.0103m    -13.5640u  
    2.65000n    850.0119m    -15.6092u  
    2.66000n    850.0135m    -17.6544u  
    2.67000n    850.0151m    -19.6996u  
    2.68000n    850.0137m    -17.8331u  
    2.69000n    850.0121m    -15.8065u  
    2.70000n    850.0106m    -13.7799u  
    2.71000n    850.0090m    -11.7532u  
    2.72000n    850.0074m     -9.7266u  
    2.73000n    850.0059m     -7.7000u  
    2.74000n    850.0043m     -5.6733u  
    2.75000n    850.0027m     -3.6467u  
    2.76000n    850.0012m     -1.6200u  
    2.77000n    849.9996m      0.       
    2.78000n    849.9980m      2.4332u  
    2.79000n    849.9965m      4.4599u  
    2.80000n    849.9949m      6.4865u  
    2.81000n    849.9933m      8.5131u  
    2.82000n    849.9918m     10.5398u  
    2.83000n    849.9902m     12.5664u  
    2.84000n    849.9887m     14.5931u  
    2.85000n    849.9871m     16.6197u  
    2.86000n    849.9855m     18.6463u  
    2.87000n    849.9840m     20.6730u  
    2.88000n    849.9855m     18.6048u  
    2.89000n    849.9872m     16.3690u  
    2.90000n    849.9889m     14.1332u  
    2.91000n    849.9906m     11.8973u  
    2.92000n    849.9923m      9.6615u  
    2.93000n    849.9940m      7.4256u  
    2.94000n    849.9957m      5.1898u  
    2.95000n    849.9974m      2.9539u  
    2.96000n    849.9991m    718.1083n  
    2.97000n    850.0008m     -1.5177u  
    2.98000n    850.0025m     -3.7536u  
    2.99000n    850.0042m     -5.9894u  
    3.00000n    850.0059m     -8.2253u  
    3.01000n    850.0076m    -10.4611u  
    3.02000n    850.0093m    -12.6969u  
    3.03000n    850.0110m    -14.9328u  
    3.04000n    850.0127m    -17.1686u  
    3.05000n    850.0144m    -19.4045u  
    3.06000n    849.9994m    691.4989n  
    3.07000n    849.9968m      2.0795u  
    3.08000n    850.0001m      0.       
    3.09000n    849.9991m    732.8682n  
    3.10000n    849.9993m    592.7391n  
    3.11000n    849.9994m    575.7500n  
    3.12000n    849.9994m    575.7405n  
    3.13000n    849.9994m    575.7405n  
    3.14000n    849.9994m    575.7405n  
    3.15000n    849.9994m    575.7405n  
    3.16000n    849.9994m    575.7405n  
    3.17000n    849.9994m    575.7405n  
    3.18000n    849.9994m    575.7405n  
    3.19000n    849.9994m    575.7405n  
    3.20000n    849.9994m    575.7405n  
    3.21000n    849.9994m    575.7405n  
    3.22000n    849.9994m    575.7405n  
    3.23000n    849.9994m    575.7405n  
    3.24000n    849.9994m    575.7405n  
    3.25000n    849.9994m    575.7405n  
    3.26000n    849.9994m    575.7405n  
    3.27000n    849.9994m    575.7405n  
    3.28000n    849.9994m    575.7405n  
    3.29000n    849.9994m    575.7405n  
    3.30000n    849.9994m    575.7405n  
    3.31000n    849.9994m    575.7405n  
    3.32000n    849.9994m    575.7405n  
    3.33000n    849.9994m    575.7405n  
    3.34000n    849.9994m    575.7405n  
    3.35000n    849.9994m    575.7405n  
    3.36000n    849.9994m    575.7405n  
    3.37000n    849.9994m    575.7405n  
    3.38000n    849.9994m    575.7405n  
    3.39000n    849.9994m    575.7405n  
    3.40000n    849.9994m    575.7405n  
    3.41000n    849.9994m    575.7405n  
    3.42000n    849.9994m    575.7405n  
    3.43000n    849.9994m    575.7405n  
    3.44000n    849.9994m    575.7405n  
    3.45000n    849.9994m    575.7405n  
    3.46000n    849.9994m    575.7405n  
    3.47000n    849.9994m    575.7405n  
    3.48000n    849.9994m    575.7405n  
    3.49000n    849.9994m    575.7405n  
    3.50000n    849.9994m    575.7405n  
    3.51000n    849.9994m    575.7405n  
    3.52000n    849.9994m    575.7405n  
    3.53000n    849.9994m    575.7405n  
    3.54000n    849.9994m    575.7405n  
    3.55000n    849.9994m    575.7405n  
    3.56000n    849.9994m    575.7405n  
    3.57000n    849.9994m    575.7405n  
    3.58000n    849.9994m    575.7405n  
    3.59000n    849.9994m    575.7405n  
    3.60000n    849.9994m    575.7405n  
    3.61000n    849.9994m    575.7405n  
    3.62000n    849.9994m    575.7405n  
    3.63000n    849.9994m    575.7405n  
    3.64000n    849.9994m    575.7405n  
    3.65000n    849.9994m    575.7405n  
    3.66000n    849.9994m    575.7405n  
    3.67000n    849.9994m    575.7405n  
    3.68000n    849.9994m    575.7405n  
    3.69000n    849.9994m    575.7405n  
    3.70000n    849.9994m    575.7405n  
    3.71000n    849.9994m    575.7405n  
    3.72000n    849.9994m    575.7405n  
    3.73000n    849.9994m    575.7405n  
    3.74000n    849.9994m    575.7405n  
    3.75000n    849.9994m    575.7405n  
    3.76000n    849.9994m    575.7405n  
    3.77000n    849.9994m    575.7405n  
    3.78000n    849.9994m    575.7405n  
    3.79000n    849.9994m    575.7405n  
    3.80000n    849.9994m    575.7405n  
    3.81000n    849.9994m    575.7405n  
    3.82000n    849.9994m    575.7405n  
    3.83000n    849.9994m    575.7405n  
    3.84000n    849.9994m    575.7405n  
    3.85000n    849.9994m    575.7405n  
    3.86000n    849.9994m    575.7405n  
    3.87000n    849.9994m    575.7405n  
    3.88000n    849.9994m    575.7405n  
    3.89000n    849.9994m    575.7405n  
    3.90000n    849.9994m    575.7405n  
    3.91000n    849.9994m    575.7405n  
    3.92000n    849.9994m    575.7405n  
    3.93000n    849.9994m    575.7405n  
    3.94000n    849.9994m    575.7405n  
    3.95000n    849.9994m    575.7405n  
    3.96000n    849.9994m    575.7405n  
    3.97000n    849.9994m    575.7405n  
    3.98000n    849.9994m    575.7405n  
    3.99000n    849.9994m    575.7405n  
    4.00000n    849.9994m    575.7405n  
y

          ***** job concluded
1****** HSPICE -- F-2011.09-SP2 64-BIT (Feb 27 2012) linux ******               
 ******  
 $this uut was automatically generated by:

  ******  job statistics summary tnom=  25.000 temp=  25.000 *****
  
  
 ******  Machine Information  ******
 CPU:
 model name	: Intel(R) Xeon(R) CPU E5-2650 v4 @ 2.20GHz
 cpu MHz	: 1797.984
  
 OS:
 Linux version 3.10.0-693.17.1.el7.x86_64 (mockbuild@x86-041.build.eng.bos.redha
 t.com) (gcc version 4.8.5 20150623 (Red Hat 4.8.5-16) (GCC) ) #1 SMP Sun Jan 14
  10:36:03 EST 2018


  ******  HSPICE Threads Information  ******

  Command Line Threads Count :     1
  Available CPU Count        :    24
  Actual Threads Count       :     1


  ******  Circuit Statistics  ******
  # nodes       =      46 # elements   =      19
  # resistors   =       0 # capacitors =       0 # inductors   =       0
  # mutual_inds =       0 # vccs       =       0 # vcvs        =       0
  # cccs        =       0 # ccvs       =       0 # volt_srcs   =       3
  # curr_srcs   =       0 # diodes     =       0 # bjts        =       0
  # jfets       =       0 # mosfets    =      16 # U elements  =       0
  # T elements  =       0 # W elements =       0 # B elements  =       0
  # S elements  =       0 # P elements =       0 # va device   =       0
  # vector_srcs =       0


  ******  Runtime Statistics (seconds)  ******

  analysis           time    # points   tot. iter  conv.iter
  op point           0.01           1          75
  transient          0.07         401        1029         134 rev=        10
  readin             0.01
  errchk             0.01
  setup              0.00
  output             0.01


           peak memory used        135.46 megabytes
           total cpu time            0.11 seconds
           total elapsed time        0.36 seconds
           job started at     23:40:43 09/12/2020
           job ended   at     23:40:43 09/12/2020


 lic: Release hspice token(s) 
