$DATA1 SOURCE='HSPICE' VERSION='F-2011.09-SP2 64-BIT'
.TITLE '$this uut was automatically generated by:'
 trf_delay_001    tfr_delay_001    trf_delay_002    tfr_delay_002     
 trf_delay_003    tfr_delay_003    trf_delay_004    tfr_delay_004     
 trf_delay_101    tfr_delay_101    trf_delay_102    tfr_delay_102     
 trf_delay_103    tfr_delay_103    trf_delay_104    tfr_delay_104     
 trf_delay_201    tfr_delay_201    trf_delay_202    tfr_delay_202     
 trf_delay_203    tfr_delay_203    trf_delay_204    tfr_delay_204     
 trf_delay_011    tfr_delay_011    trf_delay_012    tfr_delay_012     
 trf_delay_111    tfr_delay_111    trf_delay_112    tfr_delay_112     
 trf_delay_211    tfr_delay_211    trf_delay_212    tfr_delay_212     
 trf_delay_021    tfr_delay_021    trf_delay_121    tfr_delay_121     
 trf_delay_221    tfr_delay_221    inv_avg_power00  peakpower00       
 power_avg        avg_power        temper           alter#            
  5.143e-12        5.462e-12        5.103e-12        5.467e-12        
  4.936e-12        5.094e-12        4.960e-12        5.148e-12        
  3.925e-12        4.348e-12        3.847e-12        3.677e-12        
  4.791e-12        4.071e-12        3.672e-12        4.009e-12        
  1.841e-12        2.220e-12        1.993e-12        2.199e-12        
  1.837e-12        3.124e-12       -9.442e-10       -1.993e-09        
  5.143e-12        5.164e-12        4.936e-12        5.357e-12        
  4.247e-12        4.348e-12        4.136e-12        4.071e-12        
  1.841e-12        1.266e-12        1.837e-12        2.686e-12        
  5.143e-12        5.363e-12        3.694e-12        4.348e-12        
  1.841e-12        2.338e-12        1.847e-07        1.570e-04        
  3.303e-05        2.489e+27         25.0000        1                 
