 ****** HSPICE -- F-2011.09-SP2 64-BIT (Feb 27 2012) linux ******               
  Copyright (C) 2011 Synopsys, Inc. All Rights Reserved.                        
  Unpublished-rights reserved under US copyright laws.
  This program is protected by law and is subject to the
  terms and conditions of the license agreement from Synopsys.
  Use of this program is your acceptance to be bound by the
  license agreement. HSPICE is the trademark of Synopsys, Inc.
  Input File: ptm14lstp.sp                                                      
  Command line options: ptm14lstp.sp
 lic:  
 lic: FLEXlm: v10.8 
 lic: USER:   iliabautista         HOSTNAME: itn2.rc.usf.edu 
 lic: HOSTID:                      PID:      17694 
 lic: Using FLEXlm license file: 
 lic: 27000@license0.rc.usf.edu 
 lic: Checkout 1 hspice 
 lic: License/Maintenance for hspice will expire on 18-jul-2021/2019.06 
 lic: 1(in_use)/50(total) FLOATING license(s) on SERVER license0.rc.usf.edu 
 lic:   
  **warning** (../modelfiles/lstp/14nfet.pm:4) Model nfet device geometries will not be checked against the limits set by lmin, lmax, nfinmin and nfinmax. To enable this check, add a period(.) to the model name(i.e. enable model selector).
1****** HSPICE -- F-2011.09-SP2 64-BIT (Feb 27 2012) linux ******               
 ******  
 $this uut was automatically generated by:

  ******  circuit name directory
 circuit number to circuit name directory
   number circuitname                     definition         multiplier
        0 main circuit
        1 xinput_0.                       inverter           1.00 
        2 xinput_1.                       inverter           1.00 
        3 xinput_2.                       inverter           1.00 
        4 xinverter00.                    inverter           1.00 
        5 xinverter10.                    inverter           1.00 
        6 xinverter20.                    inverter           1.00 
        7 xinverter01.                    inverter           1.00 
        8 xinverter11.                    inverter           1.00 
        9 xinverter21.                    inverter           1.00 
       10 xinverter02.                    inverter           1.00 
       11 xinverter12.                    inverter           1.00 
       12 xinverter22.                    inverter           1.00 
       13 xoutput_00.                     inverter           1.00 
       14 xoutput_10.                     inverter           1.00 
       15 xoutput_20.                     inverter           1.00 
       16 xinput_0.xpfet.                 pfet               1.00 
       17 xinput_0.xnfet.                 nfet               1.00 
       18 xinput_1.xpfet.                 pfet               1.00 
       19 xinput_1.xnfet.                 nfet               1.00 
       20 xinput_2.xpfet.                 pfet               1.00 
       21 xinput_2.xnfet.                 nfet               1.00 
       22 xinverter00.xpfet.              pfet               1.00 
       23 xinverter00.xnfet.              nfet               1.00 
       24 xinverter10.xpfet.              pfet               1.00 
       25 xinverter10.xnfet.              nfet               1.00 
       26 xinverter20.xpfet.              pfet               1.00 
       27 xinverter20.xnfet.              nfet               1.00 
       28 xinverter01.xpfet.              pfet               1.00 
       29 xinverter01.xnfet.              nfet               1.00 
       30 xinverter11.xpfet.              pfet               1.00 
       31 xinverter11.xnfet.              nfet               1.00 
       32 xinverter21.xpfet.              pfet               1.00 
       33 xinverter21.xnfet.              nfet               1.00 
       34 xinverter02.xpfet.              pfet               1.00 
       35 xinverter02.xnfet.              nfet               1.00 
       36 xinverter12.xpfet.              pfet               1.00 
       37 xinverter12.xnfet.              nfet               1.00 
       38 xinverter22.xpfet.              pfet               1.00 
       39 xinverter22.xnfet.              nfet               1.00 
       40 xoutput_00.xpfet.               pfet               1.00 
       41 xoutput_00.xnfet.               nfet               1.00 
       42 xoutput_10.xpfet.               pfet               1.00 
       43 xoutput_10.xnfet.               nfet               1.00 
       44 xoutput_20.xpfet.               pfet               1.00 
       45 xoutput_20.xnfet.               nfet               1.00 
1****** HSPICE -- F-2011.09-SP2 64-BIT (Feb 27 2012) linux ******               
 ******  
 $this uut was automatically generated by:

  ******  mos   model parameters tnom=  25.000 temp=  25.000 *****
 Model Name: pfet 
 BSIM-MG BULK Model(Level72)
   VERSION = 105.03  
   DEVTYPE = -1 
   BULKMOD = 1  
   COREMOD = 0 
   GEOMOD = 1 
   RDSMOD = 1 
   IGCMOD = 1 
   IGBMOD = 1 
   GIDLMOD = 0 
   IIMOD = 0 
   NQSMOD = 0 
   SHMOD = 0 
   RGATEMOD = 0 
   RGEOMOD = 1 
   CGEOMOD = 2 
   CAPMOD = 0 
   LINT = 2.5e-10 m
   LL =      0 m^(LLN+1)
   LLN =      1 
   DLC =      0 m
   DLBIN =      0 
   LLC =      0 m^(LLN+1)
   EOT = 9.2e-10 m
   TOXP = 1.3e-09 m
   EOTBOX = 1.4e-07 m
   HFIN = 2.3e-08 m
   FECH =      1 
   DELTAW =      0 m
   FECHCV =      1 
   DELTAWCV =      0 m
   NBODY =  5e+22 m^-3
   NSD =  3e+26 m^-3
   PHIG =  4.574 eV
   EPSROX =    3.9 
   EPSRSUB =   11.9 
   EASUB =   4.05 eV
   NI0SUB = 1.1e+16 m^-3
   BG0SUB =   1.12 eV
   NC0SUB = 2.86e+25 m^-3
   NGATE =      0 m^-3
   CIT = 1.3e-05 F/m^2
   CDSC = 0.0216 F/m^2
   CDSCD =  0.007 F/m^2
   CDSCDR =  0.007 
   DVT0 =   0.01 
   DVT1 =   0.69 
   PHIN =   0.05 V
   ETA0 =   0.74 
   ETA0R =   0.74 
   DSUB =    0.9 
   K1RSCE =      0 V^1/2
   LPE0 =  5e-09 m
   DVTSHIFT =      0 
   QMFACTOR =      0 
   QMTCENIV =      0 
   QMTCENCV =      0 
   AQMTCEN =      0 
   BQMTCEN = 1.2e-08 
   ETAQM =   0.54 
   QM0 = 0.001143 
   PQM =   0.66 
   QM0ACC =  0.001 
   PQMACC =   0.66 
   VSAT = 1.05e+05 
   AVSAT =      0 
   BVSAT =  1e-07 
   VSAT1 = 1.05e+05 
   AVSAT1 =      0 
   BVSAT1 =  1e-07 
   DELTAVSAT =      1 
   KSATIV =    0.8 
   MEXP =      3 
   AMEXP =      0 
   BMEXP =      1 
   PTWG =      0 
   APTWG =      0 
   BPTWG =  1e-07 
   AT = -0.00156 
   TMEXP =      0 
   PTWGT =  0.004 
   U0 =  0.033 
   ETAMOB =      2 
   UP =      0 
   LPA =      1 
   UA =    0.3 
   AUA =      0 
   BUA =  1e-07 
   EU =    1.8 
   AEU =      0 
   BEU =  1e-07 
   UD =      0 
   AUD =      0 
   BUD =  5e-08 
   UCS =      0 
   UTE =      0 
   UTL = -0.0015 
   UA1 = 0.001032 
   UD1 =      0 
   UCSTE = -0.00478 
   RDSWMIN =      0 
   RDSW =    100 
   ARDSW =      0 
   BRDSW =  1e-07 
   RSWMIN =      0 
   RSW =      0 
   ARSW =      0 
   BRSW =  1e-07 
   RDWMIN =      0 
   RDW =      0 
   ARDW =      0 
   BRDW =  1e-07 
   PRWG =      0 
   WR =      1 
   PRT =  0.001 
   PDIBL1 =    1.3 
   PDIBL2 = 0.0002 
   DROUT =   1.06 
   PVAG =      1 
   PCLM =    0.2 
   APCLM =      0 
   BPCLM =  1e-07 
   PCLMG =      0 
   VASAT =    0.6 
   PCLMCV =  0.013 
   PCLMGCV =      0 
   VASATCV =    0.2 
   RGEXT =      0 ohm
   RGFIN =  0.001 ohm
   RSHS =      0 ohm
   RSHD =      0 ohm
   HEPI =  9e-09 m
   TSILI =  8e-09 m
   RHOC =  9e-13 ohm/m^2
   RHORSD =      1 ohm/m
   RHOEXT =      1 ohm/m
   CRATIO =    0.5 
   DELTAPRSD =      0 m
   SDTERM = 0 
   LSP = 3.6e-09 m
   LDG = 2.5e-09 m
   EPSRSP =    3.9 
   TGATE = 8.5e-09 m
   TMASK =      0 m
   ASILIEND =      0 m^2
   ARSDEND =      0 m^2
   PRSDEND =      0 m
   NSDE =  6e+25 m^-3
   RGEOA =      1 
   RGEOB =      0 m^-1
   RGEOC =      0 m^-1
   RGEOD =      0 m^-1
   RGEOE =      0 m^-1
   CGEOA =      1 
   CGEOB =      0 m^-1
   CGEOC =      0 m^-1
   CGEOD =      0 m^-1
   CGEOE =      1 
   AIGBINV = 0.0111 (Fs^2/g)^0.5m^-1
   BIGBINV =   0.03 (Fs^2/g)^0.5m^-1
   CIGBINV =  0.006 V^-1
   EIGBINV =    1.1 V
   NIGBINV =    1.2 
   AIGBACC = 0.0149 
   BIGBACC = 0.000949 
   CIGBACC =  0.075 
   NIGBACC =      3 
   AIGC = 0.0136 (Fs^2/g)^0.5m^-1
   BIGC = 0.00171 (Fs^2/g)^0.5m^-1V^-1
   CIGC =  0.075 V^-1
   NIGC =      1 
   DLCIGS =      0 m
   AIGS = 0.0136 (Fs^2/g)^0.5m^-1
   BIGS = 0.00171 (Fs^2/g)^0.5m^-1V^-1
   CIGS =  0.075 V^-1
   DLCIGD =      0 m
   AIGD = 0.0136 (Fs^2/g)^0.5m^-1
   BIGD = 0.00171 (Fs^2/g)^0.5m^-1V^-1
   CIGD =  0.075 V^-1
   POXEDGE =      1 
   AGIDL = 5.729e-12 ohm^-1
   BGIDL =  3e+08 V/m
   EGIDL =    0.1 V
   AGISL = 5.729e-12 ohm^-1
   BGISL =  3e+08 V/m
   EGISL =    0.1 V
   ALPHA0 =      0 mV^-1
   ALPHA1 =      0 V^-1
   BETA0 =     30 V^-1
   ALPHAII =      0 
   BETAII0 =      0 V^-1
   BETAII1 =      0 
   BETAII2 =    0.1 V
   ESATII =  1e+07 V/m
   LII =  5e-10 V/m
   SII0 =    0.5 V^-1
   SII1 =    0.1 
   SII2 =      0 V
   SIID =      0 V
   EOTACC = 9.2e-10 m
   DELVFBACC =      0 V
   CFS = 2.56e-11 F/m
   CFD = 2.65e-11 F/m
   COVS = 2.5e-11 F/m
   COVD = 2.5e-11 F/m
   CGSO =      0 F/m
   CGDO =      0 F/m
   CGSL =      0 F/m
   CGDL =      0 F/m
   CKAPPAS =    0.6 V
   CKAPPAD =    0.6 V
   CGBO =      0 F/m
   CGBL =      0 F/m
   CKAPPAB =    0.6 V
   CSDESW =      0 F/m
   CJS = 0.0005 F/m^2
   CJD = 0.0005 F/m^2
   CJSWS =  5e-10 F/m
   CJSWD =  5e-10 F/m
   CJSWGS =      0 F/m
   CJSWGD =      0 F/m
   PBS =      1 V
   PBD =      1 V
   PBSWS =      1 V
   PBSWD =      1 V
   PBSWGS =      1 V
   PBSWGD =      1 V
   MJS, =    0.5 
   MJD =    0.5 
   MJSWS =   0.33 
   MJSWD =   0.33 
   MJSWGS =   0.33 
   MJSWGD =   0.33 
   SJS =      0 
   SJD =      0 
   SJSWS =      0 
   SJSWD =      0 
   SJSWGS =      0 
   SJSWGD =      0 
   MJS2 =  0.125 
   MJD2 =  0.125 
   MJSWS2 =   0.33 
   MJSWD2 =   0.33 
   MJSWGS2 =   0.33 
   MJSWGD2 =   0.33 
   JSS = 0.0001 A/m^2
   JSD = 0.0001 A/m^2
   JSWS =      0 A/m
   JSWD =      0 A/m
   JSWGS =      0 A/m
   JSWGD =      0 A/m
   NJS =      1 
   NJD =      1 
   IJTHSFWD =    0.1 A
   IJTHDFWD =    0.1 A
   IJTHSREV =    0.1 A
   IJTHDREV =    0.1 A
   BVS =     10 V
   BVD =     10 V
   XJBVS =      1 
   XJBVD =      1 
   JTSS =      0 A/m^2
   JTSD =      0 A/m^2
   JTSSWS =      0 A/m
   JTSSWD =      0 A/m
   JTSSWGS =      0 A/m
   JTSSWGD =      0 A/m
   JTWEFF =      0 m
   NJTS =     20 
   NJTSD =     20 
   NJTSSW =     20 
   NJTSSWD =     20 
   NJTSSWG =     20 
   NJTSSWGD =     20 
   VTSS =     10 V
   VTSD =     10 V
   VTSSWS =     10 V
   VTSSWD =     10 V
   VTSSWGS =     10 V
   VTSSWGD =     10 V
   LINTIGEN =      0 m
   NTGEN =      1 
   AIGEN =      0 m^-3V^-1
   BIGEN =      0 m^-3V^-3
   XRCRG1 =     12 
   XRCRG2 =      1 
   NSEG = 5 
   EF =      1 
   EM = 4.1e+07 V/m
   NOIA = 6.25e+39 eV^-1s^1-EFm^-3
   NOIB = 3.125e+24 eV^-1s^1-EFm^-1
   NOIC = 8.75e+07 eV^-1s^1-EFm
   NTNOI =      1 
   TNOM =  300.1 K
   TBGASUB = 0.000702 eV/K
   TBGBSUB =   1108 K
   KT1 =      0 V
   KT1L =      0 Vm
   IIT =   -0.5 
   TII =      0 
   TGIDL = -0.0003 K^-1
   IGT =    2.5 
   TCJ =      0 K^-1
   TCJSW =      0 K^-1
   TCJSWG =      0 K^-1
   TPB =      0 K^-1
   TPBSW =      0 K^-1
   TPBSWG =      0 K^-1
   XTIS =      3 
   XTID =      3 
   XTSS =   0.02 
   XTSD =   0.02 
   XTSSWS =   0.02 
   XTSSWD =   0.02 
   XTSSWGS =   0.02 
   XTSSWGD =   0.02 
   TNJTS =      0 
   TNJTSD =      0 
   TNJTSSW =      0 
   TNJTSSWD =      0 
   TNJTSSWG =      0 
   TNJTSSWGD =      0 
   RTH0 =   0.01 ohm
   CTH0 =  1e-05 F
   WTH0 =      0 m
   LNBODY =      0 
   NNBODY =      0 
   PNBODY =      0 
   LPHIG =      0 
   NPHIG =      0 
   PPHIG =      0 
   LNGATE =      0 
   NNGATE =      0 
   PNGATE =      0 
   LCIT =      0 
   NCIT =      0 
   PCIT =      0 
   LCDSC =      0 
   NCDSC =      0 
   PCDSC =      0 
   LCDSCD =      0 
   NCDSCD =      0 
   PCDSCD =      0 
   LCDSCDR =      0 
   NCDSCDR =      0 
   PCDSCDR =      0 
   LDVT0 =      0 
   NDVT0 =      0 
   PDVT0 =      0 
   LDVT1 =      0 
   NDVT1 =      0 
   PDVT1 =      0 
   LPHIN =      0 
   NPHIN =      0 
   PPHIN =      0 
   LETA0 =      0 
   NETA0 =      0 
   PETA0 =      0 
   LETA0R =      0 
   NETA0R =      0 
   PETA0R =      0 
   LDSUB =      0 
   NDSUB =      0 
   PDSUB =      0 
   LK1RSCE =      0 
   NK1RSCE =      0 
   PK1RSCE =      0 
   LLPE0 =      0 
   NLPE0 =      0 
   PLPE0 =      0 
   LQMFACTOR =      0 
   NQMFACTOR =      0 
   PQMFACTOR =      0 
   LQMTCENIV =      0 
   NQMTCENIV =      0 
   PQMTCENIV =      0 
   LQMTCENCV =      0 
   NQMTCENCV =      0 
   PQMTCENCV =      0 
   LVSAT =      0 
   NVSAT =      0 
   PVSAT =      0 
   LKSATIV =      0 
   NKSATIV =      0 
   PKSATIV =      0 
   LMEXP =      0 
   NMEXP =      0 
   PMEXP =      0 
   LPTWG =      0 
   NPTWG =      0 
   PPTWG =      0 
   LTHETASAT =      0 
   NTHETASAT =      0 
   PTHETASAT =      0 
   LU0 =      0 
   NU0 =      0 
   PU0 =      0 
   LUP =      0 
   NUP =      0 
   PUP =      0 
   LUA =      0 
   NUA =      0 
   PUA =      0 
   LEU =      0 
   NEU =      0 
   PEU =      0 
   LUD =      0 
   NUD =      0 
   PUD =      0 
   LUCS =      0 
   NUCS =      0 
   PUCS =      0 
   LPCLM =      0 
   NPCLM =      0 
   PPCLM =      0 
   LPCLMCV =      0 
   NPCLMCV =      0 
   PPCLMCV =      0 
   LRDSW =      0 
   NRDSW =      0 
   PRDSW =      0 
   LRSW =      0 
   NRSW =      0 
   PRSW =      0 
   LRDW =      0 
   NRDW =      0 
   PRDW =      0 
   LPRWG =      0 
   NPRWG =      0 
   PPRWG =      0 
   LWR =      0 
   NWR =      0 
   PWR =      0 
   LPDIBL1 =      0 
   NPDIBL1 =      0 
   PPDIBL1 =      0 
   LPDIBL2 =      0 
   NPDIBL2 =      0 
   PPDIBL2 =      0 
   LDROUT =      0 
   NDROUT =      0 
   PDROUT =      0 
   LPVAG =      0 
   NPVAG =      0 
   PPVAG =      0 
   LAIGBINV =      0 
   NAIGBINV =      0 
   PAIGBINV =      0 
   LBIGBINV =      0 
   NBIGBINV =      0 
   PBIGBINV =      0 
   LCIGBINV =      0 
   NCIGBINV =      0 
   PCIGBINV =      0 
   LEIGBINV =      0 
   NEIGBINV =      0 
   PEIGBINV =      0 
   LNIGBINV =      0 
   NNIGBINV =      0 
   PNIGBINV =      0 
   LAIGC =      0 
   NAIGC =      0 
   PAIGC =      0 
   LBIGC =      0 
   NBIGC =      0 
   PBIGC =      0 
   LCIGC =      0 
   NCIGC =      0 
   PCIGC =      0 
   LNIGC =      0 
   NNIGC =      0 
   PNIGC =      0 
   LAIGS =      0 
   NAIGS =      0 
   PAIGS =      0 
   LBIGS =      0 
   NBIGS =      0 
   PBIGS =      0 
   LCIGS =      0 
   NCIGS =      0 
   PCIGS =      0 
   LAIGD =      0 
   NAIGD =      0 
   PAIGD =      0 
   LBIGD =      0 
   NBIGD =      0 
   PBIGD =      0 
   LCIGD =      0 
   NCIGD =      0 
   PCIGD =      0 
   LPOXEDGE =      0 
   NPOXEDGE =      0 
   PPOXEDGE =      0 
   LAGIDL =      0 
   NAGIDL =      0 
   PAGIDL =      0 
   LBGIDL =      0 
   NBGIDL =      0 
   PBGIDL =      0 
   LEGIDL =      0 
   NEGIDL =      0 
   PEGIDL =      0 
   LAGISL =      0 
   NAGISL =      0 
   PAGISL =      0 
   LBGISL =      0 
   NBGISL =      0 
   PBGISL =      0 
   LEGISL =      0 
   NEGISL =      0 
   PEGISL =      0 
   LALPHA0 =      0 
   NALPHA0 =      0 
   PALPHA0 =      0 
   LALPHA1 =      0 
   NALPHA1 =      0 
   PALPHA1 =      0 
   LBETA0 =      0 
   NBETA0 =      0 
   PBETA0 =      0 
   LALPHAII =      0 
   NALPHAII =      0 
   PALPHAII =      0 
   LBETAII0 =      0 
   NBETAII0 =      0 
   PBETAII0 =      0 
   LBETAII1 =      0 
   NBETAII1 =      0 
   PBETAII1 =      0 
   LBETAII2 =      0 
   NBETAII2 =      0 
   PBETAII2 =      0 
   LESATII =      0 
   NESATII =      0 
   PESATII =      0 
   LLII =      0 
   NLII =      0 
   PLII =      0 
   LSII0 =      0 
   NSII0 =      0 
   PSII0 =      0 
   LSII1 =      0 
   NSII1 =      0 
   PSII1 =      0 
   LSII2 =      0 
   NSII2 =      0 
   PSII2 =      0 
   LSIID =      0 
   NSIID =      0 
   PSIID =      0 
   LCFS =      0 
   NCFS =      0 
   PCFS =      0 
   LCFD =      0 
   NCFD =      0 
   PCFD =      0 
   LCOVS =      0 
   NCOVS =      0 
   PCOVS =      0 
   LCOVD =      0 
   NCOVD =      0 
   PCOVD =      0 
   LCGSL =      0 
   NCGSL =      0 
   PCGSL =      0 
   LCGDL =      0 
   NCGDL =      0 
   PCGDL =      0 
   LCKAPPAS =      0 
   NCKAPPAS =      0 
   PCKAPPAS =      0 
   LCKAPPAD =      0 
   NCKAPPAD =      0 
   PCKAPPAD =      0 
   LCGBL =      0 
   NCGBL =      0 
   PCGBL =      0 
   LCKAPPAB =      0 
   NCKAPPAB =      0 
   PCKAPPAB =      0 
   LNTGEN =      0 
   NNTGEN =      0 
   PNTGEN =      0 
   LAIGEN =      0 
   NAIGEN =      0 
   PAIGEN =      0 
   LBIGEN =      0 
   NBIGEN =      0 
   PBIGEN =      0 
   LXRCRG1 =      0 
   NXRCRG1 =      0 
   PXRCRG1 =      0 
   LXRCRG2 =      0 
   NXRCRG2 =      0 
   PXRCRG2 =      0 
   LINTNOI =      0 
   NINTNOI =      0 
   PINTNOI =      0 
   LUTE =      0 
   NUTE =      0 
   PUTE =      0 
   LUTL =      0 
   NUTL =      0 
   PUTL =      0 
   LUA1 =      0 
   NUA1 =      0 
   PUA1 =      0 
   LUD1 =      0 
   NUD1 =      0 
   PUD1 =      0 
   LUCSTE =      0 
   NUCSTE =      0 
   PUCSTE =      0 
   LPTWGT =      0 
   NPTWGT =      0 
   PPTWGT =      0 
   LAT =      0 
   NAT =      0 
   PAT =      0 
   LSTTHETASAT =      0 
   NSTTHETASAT =      0 
   PSTTHETASAT =      0 
   LPRT =      0 
   NPRT =      0 
   PPRT =      0 
   LIIT =      0 
   NIIT =      0 
   PIIT =      0 
   LTII =      0 
   NTII =      0 
   PTII =      0 
   LTGIDL =      0 
   NTGIDL =      0 
   PTGIDL =      0 
   LIGT =      0 
   NIGT =      0 
   PIGT =      0 
   L = 1.8e-08 m
   D =  4e-08 m
   TFIN =  1e-08 m
   FPITCH = 3.2e-08 m
   NF = 1 
   NFIN = 1 
   NGCON = 1 
   ASEO =      0 m^2
   ADEO =      0 m^2
   PSEO =      0 m
   PDEO =      0 m
   ASEJ =      0 m^2
   ADEJ =      0 m^2
   PSEJ =      0 m
   PDEJ =      0 m
   CGSP =      0 F
   CGDP =      0 F
   CDSP =      0 F
   NRS =      0 
   NRD =      0 
   LRSD = 1.8e-08 m
   XL =      0 m
   DELVTRAND =      0 
   U0MULT =      1 
   IDS0MULT =      1 
   Lmin =  1e-08 m
   Lmax =  3e-08 m
   NFINmin = 0 
   NFINmax = 1 
   LVSAT1 =      0 
   NVSAT1 =      0 
   PVSAT1 =      0 
   LETAMOB =      0 
   NETAMOB =      0 
   PETAMOB =      0 
   LPCLMG =      0 
   NPCLMG =      0 
   PPCLMG =      0 
   LVASAT =      0 
   NVASAT =      0 
   PVASAT =      0 
   LAIGBACC =      0 
   NAIGBACC =      0 
   PAIGBACC =      0 
   LBIGBACC =      0 
   NBIGBACC =      0 
   PBIGBACC =      0 
   LCIGBACC =      0 
   NCIGBACC =      0 
   PCIGBACC =      0 
   LNIGBACC =      0 
   NNIGBACC =      0 
   PNIGBACC =      0 
 Model Name: nfet 
 BSIM-MG BULK Model(Level72)
   VERSION = 105.03  
   DEVTYPE = 1 
   BULKMOD = 1  
   COREMOD = 0 
   GEOMOD = 1 
   RDSMOD = 1 
   IGCMOD = 1 
   IGBMOD = 1 
   GIDLMOD = 0 
   IIMOD = 0 
   NQSMOD = 0 
   SHMOD = 0 
   RGATEMOD = 0 
   RGEOMOD = 1 
   CGEOMOD = 2 
   CAPMOD = 0 
   LINT = 2.5e-10 m
   LL =      0 m^(LLN+1)
   LLN =      1 
   DLC =      0 m
   DLBIN =      0 
   LLC =      0 m^(LLN+1)
   EOT = 9.2e-10 m
   TOXP = 1.3e-09 m
   EOTBOX = 1.4e-07 m
   HFIN = 2.3e-08 m
   FECH =      1 
   DELTAW =      0 m
   FECHCV =      1 
   DELTAWCV =      0 m
   NBODY =  5e+22 m^-3
   NSD =  3e+26 m^-3
   PHIG =  4.603 eV
   EPSROX =    3.9 
   EPSRSUB =   11.9 
   EASUB =   4.05 eV
   NI0SUB = 1.1e+16 m^-3
   BG0SUB =   1.12 eV
   NC0SUB = 2.86e+25 m^-3
   NGATE =      0 m^-3
   CIT = 1.3e-05 F/m^2
   CDSC = 0.0216 F/m^2
   CDSCD =  0.007 F/m^2
   CDSCDR =  0.007 
   DVT0 =   0.01 
   DVT1 =   0.69 
   PHIN =   0.05 V
   ETA0 = 0.5141 
   ETA0R = 0.5141 
   DSUB =    0.9 
   K1RSCE =      0 V^1/2
   LPE0 =  5e-09 m
   DVTSHIFT =      0 
   QMFACTOR =      0 
   QMTCENIV =      0 
   QMTCENCV =      0 
   AQMTCEN =      0 
   BQMTCEN = 1.2e-08 
   ETAQM =   0.54 
   QM0 = 0.001143 
   PQM =   0.66 
   QM0ACC =  0.001 
   PQMACC =   0.66 
   VSAT = 1.1e+05 
   AVSAT =      0 
   BVSAT =  1e-07 
   VSAT1 = 1.1e+05 
   AVSAT1 =      0 
   BVSAT1 =  1e-07 
   DELTAVSAT =      1 
   KSATIV =    0.8 
   MEXP =      3 
   AMEXP =      0 
   BMEXP =      1 
   PTWG =      0 
   APTWG =      0 
   BPTWG =  1e-07 
   AT = -0.00156 
   TMEXP =      0 
   PTWGT =  0.004 
   U0 =  0.052 
   ETAMOB =      2 
   UP =      0 
   LPA =      1 
   UA =    0.3 
   AUA =      0 
   BUA =  1e-07 
   EU =    1.8 
   AEU =      0 
   BEU =  1e-07 
   UD =      0 
   AUD =      0 
   BUD =  5e-08 
   UCS =      0 
   UTE =      0 
   UTL = -0.0015 
   UA1 = 0.001032 
   UD1 =      0 
   UCSTE = -0.00478 
   RDSWMIN =      0 
   RDSW =    100 
   ARDSW =      0 
   BRDSW =  1e-07 
   RSWMIN =      0 
   RSW =      0 
   ARSW =      0 
   BRSW =  1e-07 
   RDWMIN =      0 
   RDW =      0 
   ARDW =      0 
   BRDW =  1e-07 
   PRWG =      0 
   WR =      1 
   PRT =  0.001 
   PDIBL1 =    1.3 
   PDIBL2 = 0.0002 
   DROUT =   1.06 
   PVAG =      1 
   PCLM =    0.2 
   APCLM =      0 
   BPCLM =  1e-07 
   PCLMG =      0 
   VASAT =    0.6 
   PCLMCV =  0.013 
   PCLMGCV =      0 
   VASATCV =    0.2 
   RGEXT =      0 ohm
   RGFIN =  0.001 ohm
   RSHS =      0 ohm
   RSHD =      0 ohm
   HEPI =  9e-09 m
   TSILI =  8e-09 m
   RHOC =  8e-13 ohm/m^2
   RHORSD =      1 ohm/m
   RHOEXT =      1 ohm/m
   CRATIO =    0.5 
   DELTAPRSD =      0 m
   SDTERM = 0 
   LSP = 3.6e-09 m
   LDG = 2.5e-09 m
   EPSRSP =    3.9 
   TGATE = 8.5e-09 m
   TMASK =      0 m
   ASILIEND =      0 m^2
   ARSDEND =      0 m^2
   PRSDEND =      0 m
   NSDE =  6e+25 m^-3
   RGEOA =      1 
   RGEOB =      0 m^-1
   RGEOC =      0 m^-1
   RGEOD =      0 m^-1
   RGEOE =      0 m^-1
   CGEOA =      1 
   CGEOB =      0 m^-1
   CGEOC =      0 m^-1
   CGEOD =      0 m^-1
   CGEOE =      1 
   AIGBINV = 0.0111 (Fs^2/g)^0.5m^-1
   BIGBINV =   0.03 (Fs^2/g)^0.5m^-1
   CIGBINV =  0.006 V^-1
   EIGBINV =    1.1 V
   NIGBINV =    1.2 
   AIGBACC = 0.0149 
   BIGBACC = 0.000949 
   CIGBACC =  0.075 
   NIGBACC =      3 
   AIGC = 0.0136 (Fs^2/g)^0.5m^-1
   BIGC = 0.00171 (Fs^2/g)^0.5m^-1V^-1
   CIGC =  0.075 V^-1
   NIGC =      1 
   DLCIGS =      0 m
   AIGS = 0.0136 (Fs^2/g)^0.5m^-1
   BIGS = 0.00171 (Fs^2/g)^0.5m^-1V^-1
   CIGS =  0.075 V^-1
   DLCIGD =      0 m
   AIGD = 0.0136 (Fs^2/g)^0.5m^-1
   BIGD = 0.00171 (Fs^2/g)^0.5m^-1V^-1
   CIGD =  0.075 V^-1
   POXEDGE =      1 
   AGIDL = 5.729e-12 ohm^-1
   BGIDL =  3e+08 V/m
   EGIDL =    0.1 V
   AGISL = 5.729e-12 ohm^-1
   BGISL =  3e+08 V/m
   EGISL =    0.1 V
   ALPHA0 =      0 mV^-1
   ALPHA1 =      0 V^-1
   BETA0 =     30 V^-1
   ALPHAII =      0 
   BETAII0 =      0 V^-1
   BETAII1 =      0 
   BETAII2 =    0.1 V
   ESATII =  1e+07 V/m
   LII =  5e-10 V/m
   SII0 =    0.5 V^-1
   SII1 =    0.1 
   SII2 =      0 V
   SIID =      0 V
   EOTACC = 9.2e-10 m
   DELVFBACC =      0 V
   CFS = 2.56e-11 F/m
   CFD = 2.65e-11 F/m
   COVS = 2.5e-11 F/m
   COVD = 2.5e-11 F/m
   CGSO =      0 F/m
   CGDO =      0 F/m
   CGSL =      0 F/m
   CGDL =      0 F/m
   CKAPPAS =    0.6 V
   CKAPPAD =    0.6 V
   CGBO =      0 F/m
   CGBL =      0 F/m
   CKAPPAB =    0.6 V
   CSDESW =      0 F/m
   CJS = 0.0005 F/m^2
   CJD = 0.0005 F/m^2
   CJSWS =  5e-10 F/m
   CJSWD =  5e-10 F/m
   CJSWGS =      0 F/m
   CJSWGD =      0 F/m
   PBS =      1 V
   PBD =      1 V
   PBSWS =      1 V
   PBSWD =      1 V
   PBSWGS =      1 V
   PBSWGD =      1 V
   MJS, =    0.5 
   MJD =    0.5 
   MJSWS =   0.33 
   MJSWD =   0.33 
   MJSWGS =   0.33 
   MJSWGD =   0.33 
   SJS =      0 
   SJD =      0 
   SJSWS =      0 
   SJSWD =      0 
   SJSWGS =      0 
   SJSWGD =      0 
   MJS2 =  0.125 
   MJD2 =  0.125 
   MJSWS2 =   0.33 
   MJSWD2 =   0.33 
   MJSWGS2 =   0.33 
   MJSWGD2 =   0.33 
   JSS = 0.0001 A/m^2
   JSD = 0.0001 A/m^2
   JSWS =      0 A/m
   JSWD =      0 A/m
   JSWGS =      0 A/m
   JSWGD =      0 A/m
   NJS =      1 
   NJD =      1 
   IJTHSFWD =    0.1 A
   IJTHDFWD =    0.1 A
   IJTHSREV =    0.1 A
   IJTHDREV =    0.1 A
   BVS =     10 V
   BVD =     10 V
   XJBVS =      1 
   XJBVD =      1 
   JTSS =      0 A/m^2
   JTSD =      0 A/m^2
   JTSSWS =      0 A/m
   JTSSWD =      0 A/m
   JTSSWGS =      0 A/m
   JTSSWGD =      0 A/m
   JTWEFF =      0 m
   NJTS =     20 
   NJTSD =     20 
   NJTSSW =     20 
   NJTSSWD =     20 
   NJTSSWG =     20 
   NJTSSWGD =     20 
   VTSS =     10 V
   VTSD =     10 V
   VTSSWS =     10 V
   VTSSWD =     10 V
   VTSSWGS =     10 V
   VTSSWGD =     10 V
   LINTIGEN =      0 m
   NTGEN =      1 
   AIGEN =      0 m^-3V^-1
   BIGEN =      0 m^-3V^-3
   XRCRG1 =     12 
   XRCRG2 =      1 
   NSEG = 5 
   EF =      1 
   EM = 4.1e+07 V/m
   NOIA = 6.25e+39 eV^-1s^1-EFm^-3
   NOIB = 3.125e+24 eV^-1s^1-EFm^-1
   NOIC = 8.75e+07 eV^-1s^1-EFm
   NTNOI =      1 
   TNOM =  300.1 K
   TBGASUB = 0.000702 eV/K
   TBGBSUB =   1108 K
   KT1 =      0 V
   KT1L =      0 Vm
   IIT =   -0.5 
   TII =      0 
   TGIDL = -0.0003 K^-1
   IGT =    2.5 
   TCJ =      0 K^-1
   TCJSW =      0 K^-1
   TCJSWG =      0 K^-1
   TPB =      0 K^-1
   TPBSW =      0 K^-1
   TPBSWG =      0 K^-1
   XTIS =      3 
   XTID =      3 
   XTSS =   0.02 
   XTSD =   0.02 
   XTSSWS =   0.02 
   XTSSWD =   0.02 
   XTSSWGS =   0.02 
   XTSSWGD =   0.02 
   TNJTS =      0 
   TNJTSD =      0 
   TNJTSSW =      0 
   TNJTSSWD =      0 
   TNJTSSWG =      0 
   TNJTSSWGD =      0 
   RTH0 =   0.01 ohm
   CTH0 =  1e-05 F
   WTH0 =      0 m
   LNBODY =      0 
   NNBODY =      0 
   PNBODY =      0 
   LPHIG =      0 
   NPHIG =      0 
   PPHIG =      0 
   LNGATE =      0 
   NNGATE =      0 
   PNGATE =      0 
   LCIT =      0 
   NCIT =      0 
   PCIT =      0 
   LCDSC =      0 
   NCDSC =      0 
   PCDSC =      0 
   LCDSCD =      0 
   NCDSCD =      0 
   PCDSCD =      0 
   LCDSCDR =      0 
   NCDSCDR =      0 
   PCDSCDR =      0 
   LDVT0 =      0 
   NDVT0 =      0 
   PDVT0 =      0 
   LDVT1 =      0 
   NDVT1 =      0 
   PDVT1 =      0 
   LPHIN =      0 
   NPHIN =      0 
   PPHIN =      0 
   LETA0 =      0 
   NETA0 =      0 
   PETA0 =      0 
   LETA0R =      0 
   NETA0R =      0 
   PETA0R =      0 
   LDSUB =      0 
   NDSUB =      0 
   PDSUB =      0 
   LK1RSCE =      0 
   NK1RSCE =      0 
   PK1RSCE =      0 
   LLPE0 =      0 
   NLPE0 =      0 
   PLPE0 =      0 
   LQMFACTOR =      0 
   NQMFACTOR =      0 
   PQMFACTOR =      0 
   LQMTCENIV =      0 
   NQMTCENIV =      0 
   PQMTCENIV =      0 
   LQMTCENCV =      0 
   NQMTCENCV =      0 
   PQMTCENCV =      0 
   LVSAT =      0 
   NVSAT =      0 
   PVSAT =      0 
   LKSATIV =      0 
   NKSATIV =      0 
   PKSATIV =      0 
   LMEXP =      0 
   NMEXP =      0 
   PMEXP =      0 
   LPTWG =      0 
   NPTWG =      0 
   PPTWG =      0 
   LTHETASAT =      0 
   NTHETASAT =      0 
   PTHETASAT =      0 
   LU0 =      0 
   NU0 =      0 
   PU0 =      0 
   LUP =      0 
   NUP =      0 
   PUP =      0 
   LUA =      0 
   NUA =      0 
   PUA =      0 
   LEU =      0 
   NEU =      0 
   PEU =      0 
   LUD =      0 
   NUD =      0 
   PUD =      0 
   LUCS =      0 
   NUCS =      0 
   PUCS =      0 
   LPCLM =      0 
   NPCLM =      0 
   PPCLM =      0 
   LPCLMCV =      0 
   NPCLMCV =      0 
   PPCLMCV =      0 
   LRDSW =      0 
   NRDSW =      0 
   PRDSW =      0 
   LRSW =      0 
   NRSW =      0 
   PRSW =      0 
   LRDW =      0 
   NRDW =      0 
   PRDW =      0 
   LPRWG =      0 
   NPRWG =      0 
   PPRWG =      0 
   LWR =      0 
   NWR =      0 
   PWR =      0 
   LPDIBL1 =      0 
   NPDIBL1 =      0 
   PPDIBL1 =      0 
   LPDIBL2 =      0 
   NPDIBL2 =      0 
   PPDIBL2 =      0 
   LDROUT =      0 
   NDROUT =      0 
   PDROUT =      0 
   LPVAG =      0 
   NPVAG =      0 
   PPVAG =      0 
   LAIGBINV =      0 
   NAIGBINV =      0 
   PAIGBINV =      0 
   LBIGBINV =      0 
   NBIGBINV =      0 
   PBIGBINV =      0 
   LCIGBINV =      0 
   NCIGBINV =      0 
   PCIGBINV =      0 
   LEIGBINV =      0 
   NEIGBINV =      0 
   PEIGBINV =      0 
   LNIGBINV =      0 
   NNIGBINV =      0 
   PNIGBINV =      0 
   LAIGC =      0 
   NAIGC =      0 
   PAIGC =      0 
   LBIGC =      0 
   NBIGC =      0 
   PBIGC =      0 
   LCIGC =      0 
   NCIGC =      0 
   PCIGC =      0 
   LNIGC =      0 
   NNIGC =      0 
   PNIGC =      0 
   LAIGS =      0 
   NAIGS =      0 
   PAIGS =      0 
   LBIGS =      0 
   NBIGS =      0 
   PBIGS =      0 
   LCIGS =      0 
   NCIGS =      0 
   PCIGS =      0 
   LAIGD =      0 
   NAIGD =      0 
   PAIGD =      0 
   LBIGD =      0 
   NBIGD =      0 
   PBIGD =      0 
   LCIGD =      0 
   NCIGD =      0 
   PCIGD =      0 
   LPOXEDGE =      0 
   NPOXEDGE =      0 
   PPOXEDGE =      0 
   LAGIDL =      0 
   NAGIDL =      0 
   PAGIDL =      0 
   LBGIDL =      0 
   NBGIDL =      0 
   PBGIDL =      0 
   LEGIDL =      0 
   NEGIDL =      0 
   PEGIDL =      0 
   LAGISL =      0 
   NAGISL =      0 
   PAGISL =      0 
   LBGISL =      0 
   NBGISL =      0 
   PBGISL =      0 
   LEGISL =      0 
   NEGISL =      0 
   PEGISL =      0 
   LALPHA0 =      0 
   NALPHA0 =      0 
   PALPHA0 =      0 
   LALPHA1 =      0 
   NALPHA1 =      0 
   PALPHA1 =      0 
   LBETA0 =      0 
   NBETA0 =      0 
   PBETA0 =      0 
   LALPHAII =      0 
   NALPHAII =      0 
   PALPHAII =      0 
   LBETAII0 =      0 
   NBETAII0 =      0 
   PBETAII0 =      0 
   LBETAII1 =      0 
   NBETAII1 =      0 
   PBETAII1 =      0 
   LBETAII2 =      0 
   NBETAII2 =      0 
   PBETAII2 =      0 
   LESATII =      0 
   NESATII =      0 
   PESATII =      0 
   LLII =      0 
   NLII =      0 
   PLII =      0 
   LSII0 =      0 
   NSII0 =      0 
   PSII0 =      0 
   LSII1 =      0 
   NSII1 =      0 
   PSII1 =      0 
   LSII2 =      0 
   NSII2 =      0 
   PSII2 =      0 
   LSIID =      0 
   NSIID =      0 
   PSIID =      0 
   LCFS =      0 
   NCFS =      0 
   PCFS =      0 
   LCFD =      0 
   NCFD =      0 
   PCFD =      0 
   LCOVS =      0 
   NCOVS =      0 
   PCOVS =      0 
   LCOVD =      0 
   NCOVD =      0 
   PCOVD =      0 
   LCGSL =      0 
   NCGSL =      0 
   PCGSL =      0 
   LCGDL =      0 
   NCGDL =      0 
   PCGDL =      0 
   LCKAPPAS =      0 
   NCKAPPAS =      0 
   PCKAPPAS =      0 
   LCKAPPAD =      0 
   NCKAPPAD =      0 
   PCKAPPAD =      0 
   LCGBL =      0 
   NCGBL =      0 
   PCGBL =      0 
   LCKAPPAB =      0 
   NCKAPPAB =      0 
   PCKAPPAB =      0 
   LNTGEN =      0 
   NNTGEN =      0 
   PNTGEN =      0 
   LAIGEN =      0 
   NAIGEN =      0 
   PAIGEN =      0 
   LBIGEN =      0 
   NBIGEN =      0 
   PBIGEN =      0 
   LXRCRG1 =      0 
   NXRCRG1 =      0 
   PXRCRG1 =      0 
   LXRCRG2 =      0 
   NXRCRG2 =      0 
   PXRCRG2 =      0 
   LINTNOI =      0 
   NINTNOI =      0 
   PINTNOI =      0 
   LUTE =      0 
   NUTE =      0 
   PUTE =      0 
   LUTL =      0 
   NUTL =      0 
   PUTL =      0 
   LUA1 =      0 
   NUA1 =      0 
   PUA1 =      0 
   LUD1 =      0 
   NUD1 =      0 
   PUD1 =      0 
   LUCSTE =      0 
   NUCSTE =      0 
   PUCSTE =      0 
   LPTWGT =      0 
   NPTWGT =      0 
   PPTWGT =      0 
   LAT =      0 
   NAT =      0 
   PAT =      0 
   LSTTHETASAT =      0 
   NSTTHETASAT =      0 
   PSTTHETASAT =      0 
   LPRT =      0 
   NPRT =      0 
   PPRT =      0 
   LIIT =      0 
   NIIT =      0 
   PIIT =      0 
   LTII =      0 
   NTII =      0 
   PTII =      0 
   LTGIDL =      0 
   NTGIDL =      0 
   PTGIDL =      0 
   LIGT =      0 
   NIGT =      0 
   PIGT =      0 
   L = 1.8e-08 m
   D =  4e-08 m
   TFIN =  1e-08 m
   FPITCH = 3.2e-08 m
   NF = 1 
   NFIN = 1 
   NGCON = 1 
   ASEO =      0 m^2
   ADEO =      0 m^2
   PSEO =      0 m
   PDEO =      0 m
   ASEJ =      0 m^2
   ADEJ =      0 m^2
   PSEJ =      0 m
   PDEJ =      0 m
   CGSP =      0 F
   CGDP =      0 F
   CDSP =      0 F
   NRS =      0 
   NRD =      0 
   LRSD = 1.8e-08 m
   XL =      0 m
   DELVTRAND =      0 
   U0MULT =      1 
   IDS0MULT =      1 
   Lmin =  1e-08 m
   Lmax =  3e-08 m
   NFINmin = 0 
   NFINmax = 1 
   LVSAT1 =      0 
   NVSAT1 =      0 
   PVSAT1 =      0 
   LETAMOB =      0 
   NETAMOB =      0 
   PETAMOB =      0 
   LPCLMG =      0 
   NPCLMG =      0 
   PPCLMG =      0 
   LVASAT =      0 
   NVASAT =      0 
   PVASAT =      0 
   LAIGBACC =      0 
   NAIGBACC =      0 
   PAIGBACC =      0 
   LBIGBACC =      0 
   NBIGBACC =      0 
   PBIGBACC =      0 
   LCIGBACC =      0 
   NCIGBACC =      0 
   PCIGBACC =      0 
   LNIGBACC =      0 
   NNIGBACC =      0 
   PNIGBACC =      0 
  **info** (ptm14lstp.sp:15) DC voltage reset to initial transient source value              in source        0:vin_0               new dc=  0.8000D+00
  
 **warning**  No DC path to ground from node        0:outin_40         defined in subckt 0               ; Connected by HSPICE with gdcpath


      
 **info** set option symb=1 internally to help for convergence.
 *****************************************************************
 ******  option summary
 ******
 runlvl  = 3         bypass  = 2         
  Opening plot unit= 15
 file=ptm14lstp.pa0                                                            

1****** HSPICE -- F-2011.09-SP2 64-BIT (Feb 27 2012) linux ******               
 ******  
 $this uut was automatically generated by:

  ******  operating point information tnom=  25.000 temp=  25.000 *****
 ***** operating point status is voltage   simulation time is     0.     
     node    =voltage       node    =voltage       node    =voltage

 + 0:inb_0   = 800.0000m  0:inb_1   = 800.0000m  0:inb_2   = 800.0000m
 + 0:outb_00 = 799.9991m  0:outb_10 = 799.9991m  0:outb_20 = 799.9991m
 + 0:outin_00= 953.6673n  0:outin_01= 953.6673n  0:outin_02= 953.6673n
 + 0:outin_10= 799.9991m  0:outin_11= 799.9991m  0:outin_12= 799.9991m
 + 0:outin_20= 953.6898n  0:outin_21= 953.6898n  0:outin_22= 953.6898n
 + 0:outin_30= 799.9992m  0:outin_31= 799.9992m  0:outin_32= 799.9992m
 + 0:outin_40=   3.9031m  0:outin_41=   3.9031m  0:outin_42=   3.9031m
 + 0:vdd     = 800.0000m

 ******  
 $this uut was automatically generated by:

  ******  transient analysis tnom=  25.000 temp=  25.000 *****
 trf_delay_001=   3.9485p  targ=  36.3597p   trig=  32.4113p
 tfr_delay_001=   4.4499p  targ=   1.0861n   trig=   1.0816n
 trf_delay_002=   4.0057p  targ=   2.0347n   trig=   2.0307n
 tfr_delay_002=   4.5566p  targ=   3.0848n   trig=   3.0803n
 trf_delay_003=   4.1981p  targ=   4.0363n   trig=   4.0321n
 tfr_delay_003=   4.1447p  targ=   5.0855n   trig=   5.0814n
 trf_delay_004=   4.4252p  targ=   6.0363n   trig=   6.0318n
 tfr_delay_004=   4.5356p  targ=   7.0850n   trig=   7.0805n
 trf_delay_101=   2.7038p  targ=   1.0888n   trig=   1.0861n
 tfr_delay_101=   3.1632p  targ=  39.5229p   trig=  36.3597p
 trf_delay_102=   3.1969p  targ=   3.0880n   trig=   3.0848n
 tfr_delay_102=   4.1102p  targ=   2.0388n   trig=   2.0347n
 trf_delay_103=   3.2768p  targ=   5.0888n   trig=   5.0855n
 tfr_delay_103=   3.2362p  targ=   4.0396n   trig=   4.0363n
 trf_delay_104=   3.0189p  targ=   7.0880n   trig=   7.0850n
 tfr_delay_104=   3.0136p  targ=   6.0393n   trig=   6.0363n
 trf_delay_201=   1.5339p  targ=  41.0569p   trig=  39.5229p
 tfr_delay_201=   1.5737p  targ=   1.0903n   trig=   1.0888n
 trf_delay_202= 497.2050f  targ=   2.0393n   trig=   2.0388n
 tfr_delay_202=   1.5017p  targ=   3.0895n   trig=   3.0880n
 trf_delay_203=   1.9976p  targ=   4.0416n   trig=   4.0396n
 tfr_delay_203=   1.7981p  targ=   5.0906n   trig=   5.0888n
 trf_delay_204=   1.5967p  targ=   6.0409n   trig=   6.0393n
 tfr_delay_204=   1.6525p  targ=   7.0897n   trig=   7.0880n
 trf_delay_011=   3.9485p  targ=  36.3597p   trig=  32.4113p
 tfr_delay_011=   3.9589p  targ=   2.0863n   trig=   2.0823n
 trf_delay_012=   4.1981p  targ=   4.0363n   trig=   4.0321n
 tfr_delay_012=   4.4585p  targ=   6.0866n   trig=   6.0822n
 trf_delay_111=   2.9825p  targ=   2.0893n   trig=   2.0863n
 tfr_delay_111=   3.1632p  targ=  39.5229p   trig=  36.3597p
 trf_delay_112=   1.9814p  targ=   6.0886n   trig=   6.0866n
 tfr_delay_112=   3.2362p  targ=   4.0396n   trig=   4.0363n
 trf_delay_211=   1.5339p  targ=  41.0569p   trig=  39.5229p
 tfr_delay_211=   1.1006p  targ=   2.0904n   trig=   2.0893n
 trf_delay_212=   1.9976p  targ=   4.0416n   trig=   4.0396n
 tfr_delay_212=   2.7730p  targ=   6.0914n   trig=   6.0886n
 trf_delay_021=   3.9485p  targ=  36.3597p   trig=  32.4113p
 tfr_delay_021=   3.9683p  targ=   4.0841n   trig=   4.0802n
 trf_delay_121=   2.8375p  targ=   4.0870n   trig=   4.0841n
 tfr_delay_121=   3.1632p  targ=  39.5229p   trig=  36.3597p
 trf_delay_221=   1.5339p  targ=  41.0569p   trig=  39.5229p
 tfr_delay_221=   1.3613p  targ=   4.0883n   trig=   4.0870n
x

        time    voltage      voltage    
                 outin_00     outin_10  
    0.          953.6673n    799.9991m  
   10.00000p     -2.4687m    800.0228m  
   20.00000p      3.1158m    800.2781m  
   30.00000p    266.2507m    797.6806m  
   40.00000p    766.9719m     54.5364m  
   50.00000p    797.2202m    724.9186u  
   60.00000p    800.0055m      9.2647u  
   70.00000p    799.9937m     -6.0476u  
   80.00000p    799.9900m     -9.6426u  
   90.00000p    800.0011m      3.6827u  
  100.00000p    800.0122m     17.0081u  
  110.00000p    800.0104m     14.6273u  
  120.00000p    800.0053m      8.3957u  
  130.00000p    800.0003m      2.1640u  
  140.00000p    799.9952m     -4.0677u  
  150.00000p    799.9901m    -10.2994u  
  160.00000p    799.9851m    -16.5311u  
  170.00000p    799.9860m    -15.3662u  
  180.00000p    799.9883m    -12.5202u  
  190.00000p    799.9906m     -9.6742u  
  200.00000p    799.9928m     -6.8283u  
  210.00000p    799.9951m     -3.9823u  
  220.00000p    799.9974m     -1.1363u  
  230.00000p    799.9997m      1.7097u  
  240.00000p    800.0020m      4.5557u  
  250.00000p    800.0042m      7.4017u  
  260.00000p    800.0065m     10.2477u  
  270.00000p    800.0088m     13.0936u  
  280.00000p    800.0111m     15.9396u  
  290.00000p    800.0133m     18.7856u  
  300.00000p    800.0131m     18.4111u  
  310.00000p    800.0118m     16.8268u  
  320.00000p    800.0105m     15.2424u  
  330.00000p    800.0093m     13.6581u  
  340.00000p    800.0080m     12.0738u  
  350.00000p    800.0068m     10.4894u  
  360.00000p    800.0055m      8.9051u  
  370.00000p    800.0042m      7.3207u  
  380.00000p    800.0030m      5.7364u  
  390.00000p    800.0017m      4.1520u  
  400.00000p    800.0005m      2.5677u  
  410.00000p    799.9992m    983.3121n  
  420.00000p    799.9979m   -601.0365n  
  430.00000p    799.9967m     -2.1854u  
  440.00000p    799.9954m     -3.7697u  
  450.00000p    799.9942m     -5.3541u  
  460.00000p    799.9929m     -6.9384u  
  470.00000p    799.9916m     -8.5228u  
  480.00000p    799.9904m    -10.1071u  
  490.00000p    799.9891m    -11.6915u  
  500.00000p    799.9879m    -13.2758u  
  510.00000p    799.9866m    -14.8602u  
  520.00000p    799.9853m    -16.4445u  
  530.00000p    799.9846m    -17.4275u  
  540.00000p    799.9853m    -16.4976u  
  550.00000p    799.9860m    -15.5678u  
  560.00000p    799.9868m    -14.6380u  
  570.00000p    799.9875m    -13.7081u  
  580.00000p    799.9882m    -12.7783u  
  590.00000p    799.9890m    -11.8485u  
  600.00000p    799.9897m    -10.9187u  
  610.00000p    799.9904m     -9.9888u  
  620.00000p    799.9912m     -9.0590u  
  630.00000p    799.9919m     -8.1292u  
  640.00000p    799.9927m     -7.1994u  
  650.00000p    799.9934m     -6.2695u  
  660.00000p    799.9941m     -5.3397u  
  670.00000p    799.9949m     -4.4099u  
  680.00000p    799.9956m     -3.4800u  
  690.00000p    799.9963m     -2.5502u  
  700.00000p    799.9971m     -1.6204u  
  710.00000p    799.9978m   -690.5551n  
  720.00000p    799.9985m      0.       
  730.00000p    799.9993m      1.1691u  
  740.00000p    800.0000m      2.0989u  
  750.00000p    800.0008m      3.0288u  
  760.00000p    800.0015m      3.9586u  
  770.00000p    800.0022m      4.8884u  
  780.00000p    800.0030m      5.8182u  
  790.00000p    800.0037m      6.7481u  
  800.00000p    800.0044m      7.6779u  
  810.00000p    800.0052m      8.6077u  
  820.00000p    800.0059m      9.5376u  
  830.00000p    800.0067m     10.4674u  
  840.00000p    800.0074m     11.3972u  
  850.00000p    800.0081m     12.3270u  
  860.00000p    800.0089m     13.2569u  
  870.00000p    800.0096m     14.1867u  
  880.00000p    800.0103m     15.1165u  
  890.00000p    800.0111m     16.0463u  
  900.00000p    800.0118m     16.9762u  
  910.00000p    800.0125m     17.9060u  
  920.00000p    800.0133m     18.8358u  
  930.00000p    800.0133m     18.8170u  
  940.00000p    800.0109m     15.7808u  
  950.00000p    800.0085m     12.7447u  
  960.00000p    800.0061m      9.7085u  
  970.00000p    800.0037m      6.6724u  
  980.00000p    800.0013m      3.6363u  
  990.00000p    799.9989m    600.1300n  
    1.00000n    799.9965m     -2.4360u  
    1.01000n    799.9941m     -5.4721u  
    1.02000n    799.9917m     -8.5083u  
    1.03000n    799.9894m    -11.5444u  
    1.04000n    799.9870m    -14.5806u  
    1.05000n    799.9846m    -17.6167u  
    1.06000n    803.3575m      0.       
    1.07000n    711.5851m     -2.0401m  
    1.08000n    479.6744m    117.4700m  
    1.09000n     33.0780m    711.9643m  
    1.10000n      2.4960m    800.8755m  
    1.11000n      0.         800.0023m  
    1.12000n    950.6603n    799.9982m  
    1.13000n      4.1386u    799.9927m  
    1.14000n      2.2252u    799.9968m  
    1.15000n      0.         800.0009m  
    1.16000n     -1.6017u    800.0050m  
    1.17000n     -2.0955u    800.0060m  
    1.18000n     -1.3234u    800.0042m  
    1.19000n   -551.2963n    800.0024m  
    1.20000n      0.         800.0006m  
    1.21000n    992.8985n    799.9989m  
    1.22000n      1.7650u    799.9971m  
    1.23000n      2.5371u    799.9953m  
    1.24000n      3.3092u    799.9935m  
    1.25000n      4.0813u    799.9917m  
    1.26000n      4.0309u    799.9919m  
    1.27000n      3.7024u    799.9926m  
    1.28000n      3.3740u    799.9934m  
    1.29000n      3.0455u    799.9942m  
    1.30000n      2.7171u    799.9950m  
    1.31000n      2.3886u    799.9958m  
    1.32000n      2.0602u    799.9966m  
    1.33000n      1.7317u    799.9974m  
    1.34000n      1.4033u    799.9981m  
    1.35000n      1.0748u    799.9989m  
    1.36000n    746.3844n    799.9997m  
    1.37000n      0.         800.0005m  
    1.38000n      0.         800.0013m  
    1.39000n      0.         800.0021m  
    1.40000n   -567.4201n    800.0028m  
    1.41000n   -895.8712n    800.0036m  
    1.42000n     -1.2243u    800.0044m  
    1.43000n     -1.5528u    800.0052m  
    1.44000n     -1.8812u    800.0060m  
    1.45000n     -2.2097u    800.0068m  
    1.46000n     -2.1929u    800.0067m  
    1.47000n     -2.0203u    800.0063m  
    1.48000n     -1.8476u    800.0059m  
    1.49000n     -1.6750u    800.0055m  
    1.50000n     -1.5023u    800.0050m  
    1.51000n     -1.3297u    800.0046m  
    1.52000n     -1.1570u    800.0042m  
    1.53000n   -984.3578n    800.0038m  
    1.54000n   -811.7036n    800.0034m  
    1.55000n   -639.0494n    800.0030m  
    1.56000n      0.         800.0025m  
    1.57000n      0.         800.0021m  
    1.58000n      0.         800.0017m  
    1.59000n      0.         800.0013m  
    1.60000n      0.         800.0009m  
    1.61000n      0.         800.0004m  
    1.62000n    569.5303n    800.0000m  
    1.63000n    742.1845n    799.9996m  
    1.64000n    914.8388n    799.9992m  
    1.65000n      1.0875u    799.9988m  
    1.66000n      1.2601u    799.9983m  
    1.67000n      1.4328u    799.9979m  
    1.68000n      1.6055u    799.9975m  
    1.69000n      1.7781u    799.9971m  
    1.70000n      1.9508u    799.9967m  
    1.71000n      2.1234u    799.9963m  
    1.72000n      2.2961u    799.9958m  
    1.73000n      2.4687u    799.9954m  
    1.74000n      2.6414u    799.9950m  
    1.75000n      2.8140u    799.9946m  
    1.76000n      2.9867u    799.9942m  
    1.77000n      3.1593u    799.9937m  
    1.78000n      3.3320u    799.9933m  
    1.79000n      3.5047u    799.9929m  
    1.80000n      3.6773u    799.9925m  
    1.81000n      3.8500u    799.9921m  
    1.82000n      4.0226u    799.9916m  
    1.83000n      4.1712u    799.9913m  
    1.84000n      3.7956u    799.9922m  
    1.85000n      3.4199u    799.9931m  
    1.86000n      3.0443u    799.9941m  
    1.87000n      2.6687u    799.9950m  
    1.88000n      2.2931u    799.9959m  
    1.89000n      1.9174u    799.9968m  
    1.90000n      1.5418u    799.9978m  
    1.91000n      1.1662u    799.9987m  
    1.92000n    790.5573n    799.9996m  
    1.93000n      0.         800.0006m  
    1.94000n      0.         800.0015m  
    1.95000n      0.         800.0024m  
    1.96000n   -711.9461n    800.0033m  
    1.97000n     -1.0876u    800.0043m  
    1.98000n     -1.4632u    800.0052m  
    1.99000n     -1.8388u    800.0061m  
    2.00000n     -2.2144u    800.0070m  
    2.01000n     -2.7140m    799.9939m  
    2.02000n     96.0349m    801.5244m  
    2.03000n    374.6727m    721.8070m  
    2.04000n    756.5843m     71.0721m  
    2.05000n    761.3105m   -934.2363m  
    2.06000n    957.4995m    -75.5493m  
    2.07000n    799.9989m      0.       
    2.08000n    799.9951m     -1.6339u  
    2.09000n    800.0014m      2.7264u  
    2.10000n    800.0041m      5.1983u  
    2.11000n    799.9991m      1.3320u  
    2.12000n    799.9992m      1.3518u  
    2.13000n    799.9991m      1.3423u  
    2.14000n    799.9991m      1.3328u  
    2.15000n    799.9991m      1.3297u  
    2.16000n    799.9991m      1.3329u  
    2.17000n    799.9991m      1.3362u  
    2.18000n    799.9991m      1.3394u  
    2.19000n    799.9991m      1.3427u  
    2.20000n    799.9991m      1.3459u  
    2.21000n    799.9992m      1.3492u  
    2.22000n    799.9992m      1.3524u  
    2.23000n    799.9992m      1.3513u  
    2.24000n    799.9992m      1.3499u  
    2.25000n    799.9992m      1.3484u  
    2.26000n    799.9991m      1.3469u  
    2.27000n    799.9991m      1.3454u  
    2.28000n    799.9991m      1.3439u  
    2.29000n    799.9991m      1.3424u  
    2.30000n    799.9991m      1.3410u  
    2.31000n    799.9991m      1.3395u  
    2.32000n    799.9991m      1.3380u  
    2.33000n    799.9991m      1.3365u  
    2.34000n    799.9991m      1.3350u  
    2.35000n    799.9991m      1.3335u  
    2.36000n    799.9991m      1.3321u  
    2.37000n    799.9991m      1.3306u  
    2.38000n    799.9991m      1.3291u  
    2.39000n    799.9991m      1.3282u  
    2.40000n    799.9991m      1.3288u  
    2.41000n    799.9991m      1.3295u  
    2.42000n    799.9991m      1.3301u  
    2.43000n    799.9991m      1.3307u  
    2.44000n    799.9991m      1.3314u  
    2.45000n    799.9991m      1.3320u  
    2.46000n    799.9991m      1.3327u  
    2.47000n    799.9991m      1.3333u  
    2.48000n    799.9991m      1.3339u  
    2.49000n    799.9991m      1.3346u  
    2.50000n    799.9991m      1.3352u  
    2.51000n    799.9991m      1.3359u  
    2.52000n    799.9991m      1.3365u  
    2.53000n    799.9991m      1.3371u  
    2.54000n    799.9991m      1.3378u  
    2.55000n    799.9991m      1.3384u  
    2.56000n    799.9991m      1.3390u  
    2.57000n    799.9991m      1.3397u  
    2.58000n    799.9991m      1.3403u  
    2.59000n    799.9991m      1.3410u  
    2.60000n    799.9991m      1.3416u  
    2.61000n    799.9991m      1.3422u  
    2.62000n    799.9991m      1.3429u  
    2.63000n    799.9991m      1.3435u  
    2.64000n    799.9991m      1.3442u  
    2.65000n    799.9991m      1.3448u  
    2.66000n    799.9991m      1.3454u  
    2.67000n    799.9991m      1.3461u  
    2.68000n    799.9991m      1.3467u  
    2.69000n    799.9991m      1.3474u  
    2.70000n    799.9991m      1.3480u  
    2.71000n    799.9992m      1.3486u  
    2.72000n    799.9992m      1.3493u  
    2.73000n    799.9992m      1.3499u  
    2.74000n    799.9992m      1.3505u  
    2.75000n    799.9992m      1.3512u  
    2.76000n    799.9992m      1.3518u  
    2.77000n    799.9992m      1.3525u  
    2.78000n    799.9992m      1.3522u  
    2.79000n    799.9992m      1.3513u  
    2.80000n    799.9992m      1.3504u  
    2.81000n    799.9992m      1.3495u  
    2.82000n    799.9992m      1.3486u  
    2.83000n    799.9991m      1.3477u  
    2.84000n    799.9991m      1.3468u  
    2.85000n    799.9991m      1.3459u  
    2.86000n    799.9991m      1.3450u  
    2.87000n    799.9991m      1.3441u  
    2.88000n    799.9991m      1.3432u  
    2.89000n    799.9991m      1.3423u  
    2.90000n    799.9991m      1.3414u  
    2.91000n    799.9991m      1.3405u  
    2.92000n    799.9991m      1.3396u  
    2.93000n    799.9991m      1.3387u  
    2.94000n    799.9991m      1.3378u  
    2.95000n    799.9991m      1.3370u  
    2.96000n    799.9991m      1.3361u  
    2.97000n    799.9991m      1.3352u  
    2.98000n    799.9991m      1.3343u  
    2.99000n    799.9991m      1.3334u  
    3.00000n    799.9991m      1.3325u  
    3.01000n    799.9991m      1.3316u  
    3.02000n    799.9991m      1.3307u  
    3.03000n    799.9991m      1.3298u  
    3.04000n    799.9991m      1.3289u  
    3.05000n    799.9991m      1.3280u  
    3.06000n    708.4967m   -478.4368u  
    3.07000n    616.9942m   -958.2016u  
    3.08000n    408.3178m     97.2650m  
    3.09000n      5.5061m    782.8657m  
    3.10000n      2.7006m    800.2999m  
    3.11000n      7.0517u    799.9681m  
    3.12000n     -1.3230u    800.0195m  
    3.13000n    616.0622n    799.9990m  
    3.14000n      2.5551u    799.9784m  
    3.15000n      2.3555u    799.9819m  
    3.16000n      1.8028u    799.9893m  
    3.17000n      1.2502u    799.9968m  
    3.18000n    697.5200n    800.0042m  
    3.19000n      0.         800.0117m  
    3.20000n      0.         800.0192m  
    3.21000n   -507.5469n    800.0203m  
    3.22000n      0.         800.0171m  
    3.23000n      0.         800.0139m  
    3.24000n      0.         800.0107m  
    3.25000n      0.         800.0075m  
    3.26000n    551.9772n    800.0043m  
    3.27000n    763.8820n    800.0012m  
    3.28000n    975.7868n    799.9980m  
    3.29000n      1.1877u    799.9948m  
    3.30000n      1.3996u    799.9916m  
    3.31000n      1.6115u    799.9884m  
    3.32000n      1.8234u    799.9852m  
    3.33000n      2.0353u    799.9820m  
    3.34000n      2.2472u    799.9788m  
    3.35000n      2.3968u    799.9766m  
    3.36000n      2.3040u    799.9781m  
    3.37000n      2.2111u    799.9795m  
    3.38000n      2.1182u    799.9810m  
    3.39000n      2.0254u    799.9825m  
    3.40000n      1.9325u    799.9840m  
    3.41000n      1.8396u    799.9854m  
    3.42000n      1.7468u    799.9869m  
    3.43000n      1.6539u    799.9884m  
    3.44000n      1.5610u    799.9899m  
    3.45000n      1.4682u    799.9913m  
    3.46000n      1.3753u    799.9928m  
    3.47000n      1.2824u    799.9943m  
    3.48000n      1.1895u    799.9958m  
    3.49000n      1.0967u    799.9972m  
    3.50000n      1.0038u    799.9987m  
    3.51000n    910.9377n    800.0002m  
    3.52000n    818.0682n    800.0016m  
    3.53000n    725.1987n    800.0031m  
    3.54000n    632.3292n    800.0046m  
    3.55000n    539.4597n    800.0061m  
    3.56000n      0.         800.0075m  
    3.57000n      0.         800.0090m  
    3.58000n      0.         800.0105m  
    3.59000n      0.         800.0120m  
    3.60000n      0.         800.0134m  
    3.61000n      0.         800.0149m  
    3.62000n      0.         800.0164m  
    3.63000n      0.         800.0179m  
    3.64000n      0.         800.0193m  
    3.65000n      0.         800.0208m  
    3.66000n      0.         800.0215m  
    3.67000n      0.         800.0202m  
    3.68000n      0.         800.0188m  
    3.69000n      0.         800.0175m  
    3.70000n      0.         800.0162m  
    3.71000n      0.         800.0149m  
    3.72000n      0.         800.0135m  
    3.73000n      0.         800.0122m  
    3.74000n      0.         800.0109m  
    3.75000n      0.         800.0096m  
    3.76000n      0.         800.0082m  
    3.77000n      0.         800.0069m  
    3.78000n    536.1475n    800.0056m  
    3.79000n    616.7739n    800.0043m  
    3.80000n    697.4003n    800.0029m  
    3.81000n    778.0267n    800.0016m  
    3.82000n    858.6532n    800.0003m  
    3.83000n    939.2796n    799.9990m  
    3.84000n      1.0199u    799.9977m  
    3.85000n      1.1005u    799.9963m  
    3.86000n      1.1812u    799.9950m  
    3.87000n      1.2618u    799.9937m  
    3.88000n      1.3424u    799.9924m  
    3.89000n      1.4230u    799.9910m  
    3.90000n      1.5037u    799.9897m  
    3.91000n      1.5843u    799.9884m  
    3.92000n      1.6649u    799.9871m  
    3.93000n      1.7455u    799.9857m  
    3.94000n      1.8262u    799.9844m  
    3.95000n      1.9068u    799.9831m  
    3.96000n      1.9874u    799.9818m  
    3.97000n      2.0680u    799.9804m  
    3.98000n      2.1487u    799.9791m  
    3.99000n      2.2293u    799.9778m  
    4.00000n      2.3099u    799.9765m  
    4.01000n     -2.6077m    799.9830m  
    4.02000n      7.1935m    800.3958m  
    4.03000n    282.5374m    799.7061m  
    4.04000n    767.9534m     55.5639m  
    4.05000n    796.6533m   -789.1902u  
    4.06000n    799.9943m   -556.9609n  
    4.07000n    800.0130m     12.8465u  
    4.08000n    799.9938m     -6.0456u  
    4.09000n    800.0051m      8.9681u  
    4.10000n    799.9934m    -13.9186u  
    4.11000n    799.9992m      1.3214u  
    4.12000n    799.9990m    706.2870n  
    4.13000n    799.9992m      1.1222u  
    4.14000n    799.9992m      1.3160u  
    4.15000n    799.9992m      1.1381u  
    4.16000n    799.9991m    960.2309n  
    4.17000n    799.9991m    782.3374n  
    4.18000n    799.9990m    604.4438n  
    4.19000n    799.9990m    598.2982n  
    4.20000n    799.9990m    676.9451n  
    4.21000n    799.9990m    755.5919n  
    4.22000n    799.9991m    834.2388n  
    4.23000n    799.9991m    912.8856n  
    4.24000n    799.9991m    991.5325n  
    4.25000n    799.9992m      1.0702u  
    4.26000n    799.9992m      1.1488u  
    4.27000n    799.9992m      1.2275u  
    4.28000n    799.9992m      1.3061u  
    4.29000n    799.9993m      1.3776u  
    4.30000n    799.9993m      1.3408u  
    4.31000n    799.9992m      1.3040u  
    4.32000n    799.9992m      1.2671u  
    4.33000n    799.9992m      1.2303u  
    4.34000n    799.9992m      1.1935u  
    4.35000n    799.9992m      1.1567u  
    4.36000n    799.9992m      1.1198u  
    4.37000n    799.9992m      1.0830u  
    4.38000n    799.9991m      1.0462u  
    4.39000n    799.9991m      1.0094u  
    4.40000n    799.9991m    972.5516n  
    4.41000n    799.9991m    935.7287n  
    4.42000n    799.9991m    898.9059n  
    4.43000n    799.9991m    862.0830n  
    4.44000n    799.9991m    825.2602n  
    4.45000n    799.9991m    788.4373n  
    4.46000n    799.9990m    751.6145n  
    4.47000n    799.9990m    714.7916n  
    4.48000n    799.9990m    677.9688n  
    4.49000n    799.9990m    641.1459n  
    4.50000n    799.9990m    604.3230n  
    4.51000n    799.9990m    567.5002n  
    4.52000n    799.9990m    555.9707n  
    4.53000n    799.9990m    576.7821n  
    4.54000n    799.9990m    597.5935n  
    4.55000n    799.9990m    618.4049n  
    4.56000n    799.9990m    639.2162n  
    4.57000n    799.9990m    660.0276n  
    4.58000n    799.9990m    680.8390n  
    4.59000n    799.9990m    701.6504n  
    4.60000n    799.9990m    722.4617n  
    4.61000n    799.9990m    743.2731n  
    4.62000n    799.9990m    764.0845n  
    4.63000n    799.9991m    784.8959n  
    4.64000n    799.9991m    805.7072n  
    4.65000n    799.9991m    826.5186n  
    4.66000n    799.9991m    847.3300n  
    4.67000n    799.9991m    868.1413n  
    4.68000n    799.9991m    888.9527n  
    4.69000n    799.9991m    909.7641n  
    4.70000n    799.9991m    930.5755n  
    4.71000n    799.9991m    951.3868n  
    4.72000n    799.9991m    972.1982n  
    4.73000n    799.9991m    993.0096n  
    4.74000n    799.9991m      1.0138u  
    4.75000n    799.9991m      1.0346u  
    4.76000n    799.9992m      1.0554u  
    4.77000n    799.9992m      1.0763u  
    4.78000n    799.9992m      1.0971u  
    4.79000n    799.9992m      1.1179u  
    4.80000n    799.9992m      1.1387u  
    4.81000n    799.9992m      1.1595u  
    4.82000n    799.9992m      1.1803u  
    4.83000n    799.9992m      1.2011u  
    4.84000n    799.9992m      1.2219u  
    4.85000n    799.9992m      1.2427u  
    4.86000n    799.9992m      1.2636u  
    4.87000n    799.9992m      1.2844u  
    4.88000n    799.9992m      1.3052u  
    4.89000n    799.9993m      1.3260u  
    4.90000n    799.9993m      1.3468u  
    4.91000n    799.9993m      1.3676u  
    4.92000n    799.9993m      1.3521u  
    4.93000n    799.9992m      1.2903u  
    4.94000n    799.9992m      1.2284u  
    4.95000n    799.9992m      1.1665u  
    4.96000n    799.9992m      1.1046u  
    4.97000n    799.9991m      1.0427u  
    4.98000n    799.9991m    980.8538n  
    4.99000n    799.9991m    918.9735n  
    5.00000n    799.9991m    857.0932n  
    5.01000n    799.9991m    795.2129n  
    5.02000n    799.9990m    733.3327n  
    5.03000n    799.9990m    671.4524n  
    5.04000n    799.9990m    609.5721n  
    5.05000n    799.9990m    547.6918n  
    5.06000n    803.3472m      1.7366u  
    5.07000n    690.5012m     -2.4679m  
    5.08000n    465.2870m    122.0518m  
    5.09000n     26.6449m    729.0891m  
    5.10000n      2.4840m    800.3269m  
    5.11000n      5.3347u    799.9759m  
    5.12000n      0.         800.0177m  
    5.13000n    895.4133n    799.9907m  
    5.14000n      1.7412u    799.9753m  
    5.15000n      1.4615u    799.9865m  
    5.16000n      1.1817u    799.9977m  
    5.17000n    901.9047n    800.0089m  
    5.18000n    622.1273n    800.0201m  
    5.19000n    514.8619n    800.0234m  
    5.20000n    586.6091n    800.0185m  
    5.21000n    658.3564n    800.0136m  
    5.22000n    730.1036n    800.0087m  
    5.23000n    801.8508n    800.0038m  
    5.24000n    873.5981n    799.9989m  
    5.25000n    945.3453n    799.9940m  
    5.26000n      1.0171u    799.9891m  
    5.27000n      1.0888u    799.9842m  
    5.28000n      1.1606u    799.9793m  
    5.29000n      1.2323u    799.9743m  
    5.30000n      1.2424u    799.9741m  
    5.31000n      1.2186u    799.9765m  
    5.32000n      1.1947u    799.9789m  
    5.33000n      1.1708u    799.9813m  
    5.34000n      1.1470u    799.9837m  
    5.35000n      1.1231u    799.9861m  
    5.36000n      1.0992u    799.9885m  
    5.37000n      1.0754u    799.9909m  
    5.38000n      1.0515u    799.9933m  
    5.39000n      1.0276u    799.9957m  
    5.40000n      1.0038u    799.9982m  
    5.41000n    979.8835n    800.0006m  
    5.42000n    956.0150n    800.0030m  
    5.43000n    932.1466n    800.0054m  
    5.44000n    908.2781n    800.0078m  
    5.45000n    884.4097n    800.0102m  
    5.46000n    860.5412n    800.0126m  
    5.47000n    836.6727n    800.0150m  
    5.48000n    812.8043n    800.0174m  
    5.49000n    788.9358n    800.0198m  
    5.50000n    765.0674n    800.0222m  
    5.51000n    741.1989n    800.0246m  
    5.52000n    737.1717n    800.0248m  
    5.53000n    747.1663n    800.0235m  
    5.54000n    757.1608n    800.0221m  
    5.55000n    767.1553n    800.0208m  
    5.56000n    777.1499n    800.0195m  
    5.57000n    787.1444n    800.0182m  
    5.58000n    797.1390n    800.0169m  
    5.59000n    807.1335n    800.0155m  
    5.60000n    817.1281n    800.0142m  
    5.61000n    827.1226n    800.0129m  
    5.62000n    837.1171n    800.0116m  
    5.63000n    847.1117n    800.0103m  
    5.64000n    857.1062n    800.0089m  
    5.65000n    867.1008n    800.0076m  
    5.66000n    877.0953n    800.0063m  
    5.67000n    887.0898n    800.0050m  
    5.68000n    897.0844n    800.0037m  
    5.69000n    907.0789n    800.0023m  
    5.70000n    917.0735n    800.0010m  
    5.71000n    927.0680n    799.9997m  
    5.72000n    937.0626n    799.9984m  
    5.73000n    947.0571n    799.9971m  
    5.74000n    957.0516n    799.9957m  
    5.75000n    967.0462n    799.9944m  
    5.76000n    977.0407n    799.9931m  
    5.77000n    987.0353n    799.9918m  
    5.78000n    997.0298n    799.9905m  
    5.79000n      1.0070u    799.9891m  
    5.80000n      1.0170u    799.9878m  
    5.81000n      1.0270u    799.9865m  
    5.82000n      1.0370u    799.9852m  
    5.83000n      1.0470u    799.9839m  
    5.84000n      1.0570u    799.9825m  
    5.85000n      1.0670u    799.9812m  
    5.86000n      1.0770u    799.9799m  
    5.87000n      1.0870u    799.9786m  
    5.88000n      1.0970u    799.9773m  
    5.89000n      1.1070u    799.9759m  
    5.90000n      1.1170u    799.9746m  
    5.91000n      1.1270u    799.9733m  
    5.92000n      1.1208u    799.9763m  
    5.93000n      1.1033u    799.9825m  
    5.94000n      1.0858u    799.9886m  
    5.95000n      1.0683u    799.9947m  
    5.96000n      1.0508u    800.0008m  
    5.97000n      1.0333u    800.0069m  
    5.98000n      1.0157u    800.0130m  
    5.99000n    998.2248n    800.0191m  
    6.00000n    980.7091n    800.0252m  
    6.01000n     -2.7769m    800.0061m  
    6.02000n     15.6031m    800.5173m  
    6.03000n    306.4956m    805.1649m  
    6.04000n    775.7849m     34.7133m  
    6.05000n    797.1867m    611.7256u  
    6.06000n    800.0058m      8.0802u  
    6.07000n    799.9937m     -4.9076u  
    6.08000n    799.9989m      1.9576u  
    6.09000n    799.9903m    -10.5812u  
    6.10000n    799.9990m    938.6889n  
    6.11000n    799.9991m    953.6899n  
    6.12000n    799.9991m    953.6898n  
    6.13000n    799.9991m    953.6898n  
    6.14000n    799.9991m    953.6898n  
    6.15000n    799.9991m    953.6899n  
    6.16000n    799.9991m    953.6899n  
    6.17000n    799.9991m    953.6899n  
    6.18000n    799.9991m    953.6899n  
    6.19000n    799.9991m    953.6898n  
    6.20000n    799.9991m    953.6898n  
    6.21000n    799.9991m    953.6898n  
    6.22000n    799.9991m    953.6898n  
    6.23000n    799.9991m    953.6898n  
    6.24000n    799.9991m    953.6897n  
    6.25000n    799.9991m    953.6898n  
    6.26000n    799.9991m    953.6898n  
    6.27000n    799.9991m    953.6898n  
    6.28000n    799.9991m    953.6898n  
    6.29000n    799.9991m    953.6898n  
    6.30000n    799.9991m    953.6898n  
    6.31000n    799.9991m    953.6898n  
    6.32000n    799.9991m    953.6898n  
    6.33000n    799.9991m    953.6898n  
    6.34000n    799.9991m    953.6898n  
    6.35000n    799.9991m    953.6898n  
    6.36000n    799.9991m    953.6898n  
    6.37000n    799.9991m    953.6898n  
    6.38000n    799.9991m    953.6899n  
    6.39000n    799.9991m    953.6899n  
    6.40000n    799.9991m    953.6899n  
    6.41000n    799.9991m    953.6899n  
    6.42000n    799.9991m    953.6899n  
    6.43000n    799.9991m    953.6899n  
    6.44000n    799.9991m    953.6899n  
    6.45000n    799.9991m    953.6899n  
    6.46000n    799.9991m    953.6899n  
    6.47000n    799.9991m    953.6899n  
    6.48000n    799.9991m    953.6899n  
    6.49000n    799.9991m    953.6899n  
    6.50000n    799.9991m    953.6899n  
    6.51000n    799.9991m    953.6899n  
    6.52000n    799.9991m    953.6899n  
    6.53000n    799.9991m    953.6899n  
    6.54000n    799.9991m    953.6899n  
    6.55000n    799.9991m    953.6899n  
    6.56000n    799.9991m    953.6899n  
    6.57000n    799.9991m    953.6899n  
    6.58000n    799.9991m    953.6899n  
    6.59000n    799.9991m    953.6898n  
    6.60000n    799.9991m    953.6898n  
    6.61000n    799.9991m    953.6898n  
    6.62000n    799.9991m    953.6898n  
    6.63000n    799.9991m    953.6898n  
    6.64000n    799.9991m    953.6898n  
    6.65000n    799.9991m    953.6898n  
    6.66000n    799.9991m    953.6898n  
    6.67000n    799.9991m    953.6898n  
    6.68000n    799.9991m    953.6898n  
    6.69000n    799.9991m    953.6898n  
    6.70000n    799.9991m    953.6898n  
    6.71000n    799.9991m    953.6898n  
    6.72000n    799.9991m    953.6898n  
    6.73000n    799.9991m    953.6898n  
    6.74000n    799.9991m    953.6898n  
    6.75000n    799.9991m    953.6898n  
    6.76000n    799.9991m    953.6898n  
    6.77000n    799.9991m    953.6898n  
    6.78000n    799.9991m    953.6898n  
    6.79000n    799.9991m    953.6898n  
    6.80000n    799.9991m    953.6898n  
    6.81000n    799.9991m    953.6898n  
    6.82000n    799.9991m    953.6898n  
    6.83000n    799.9991m    953.6898n  
    6.84000n    799.9991m    953.6897n  
    6.85000n    799.9991m    953.6897n  
    6.86000n    799.9991m    953.6898n  
    6.87000n    799.9991m    953.6898n  
    6.88000n    799.9991m    953.6898n  
    6.89000n    799.9991m    953.6898n  
    6.90000n    799.9991m    953.6898n  
    6.91000n    799.9991m    953.6898n  
    6.92000n    799.9991m    953.6898n  
    6.93000n    799.9991m    953.6898n  
    6.94000n    799.9991m    953.6898n  
    6.95000n    799.9991m    953.6898n  
    6.96000n    799.9991m    953.6898n  
    6.97000n    799.9991m    953.6898n  
    6.98000n    799.9991m    953.6898n  
    6.99000n    799.9991m    953.6899n  
    7.00000n    799.9991m    953.6899n  
    7.01000n    799.9991m    953.6899n  
    7.02000n    799.9991m    953.6899n  
    7.03000n    799.9991m    953.6899n  
    7.04000n    799.9991m    953.6899n  
    7.05000n    799.9991m    953.6899n  
    7.06000n    708.4967m   -478.6627u  
    7.07000n    616.9943m   -958.2791u  
    7.08000n    414.2362m     56.3011m  
    7.09000n      5.3106m    782.9809m  
    7.10000n      2.5517m    799.8505m  
    7.11000n      5.3519u    800.0008m  
    7.12000n     -1.8719u    799.9976m  
    7.13000n     10.8541u    800.0037m  
    7.14000n      7.4639u    800.0021m  
    7.15000n      3.7216u    800.0004m  
    7.16000n      0.         799.9987m  
    7.17000n     -3.7632u    799.9969m  
    7.18000n     -7.5056u    799.9952m  
    7.19000n     -7.9569u    799.9950m  
    7.20000n     -6.4295u    799.9957m  
    7.21000n     -4.9021u    799.9964m  
    7.22000n     -3.3747u    799.9971m  
    7.23000n     -1.8473u    799.9978m  
    7.24000n      0.         799.9986m  
    7.25000n      1.2075u    799.9993m  
    7.26000n      2.7350u    800.0000m  
    7.27000n      4.2624u    800.0007m  
    7.28000n      5.7898u    800.0014m  
    7.29000n      7.3172u    800.0021m  
    7.30000n      8.8446u    800.0028m  
    7.31000n     10.3720u    800.0035m  
    7.32000n     10.1769u    800.0034m  
    7.33000n      9.5271u    800.0031m  
    7.34000n      8.8774u    800.0028m  
    7.35000n      8.2276u    800.0025m  
    7.36000n      7.5779u    800.0022m  
    7.37000n      6.9282u    800.0019m  
    7.38000n      6.2784u    800.0016m  
    7.39000n      5.6287u    800.0013m  
    7.40000n      4.9789u    800.0010m  
    7.41000n      4.3292u    800.0007m  
    7.42000n      3.6795u    800.0004m  
    7.43000n      3.0297u    800.0001m  
    7.44000n      2.3800u    799.9998m  
    7.45000n      1.7302u    799.9995m  
    7.46000n      1.0805u    799.9992m  
    7.47000n      0.         799.9989m  
    7.48000n      0.         799.9986m  
    7.49000n   -868.7115n    799.9983m  
    7.50000n     -1.5185u    799.9980m  
    7.51000n     -2.1682u    799.9977m  
    7.52000n     -2.8179u    799.9974m  
    7.53000n     -3.4677u    799.9971m  
    7.54000n     -4.1174u    799.9968m  
    7.55000n     -4.7671u    799.9965m  
    7.56000n     -5.4169u    799.9962m  
    7.57000n     -6.0666u    799.9959m  
    7.58000n     -6.7164u    799.9956m  
    7.59000n     -7.3661u    799.9953m  
    7.60000n     -8.0158u    799.9950m  
    7.61000n     -8.6656u    799.9946m  
    7.62000n     -8.2857u    799.9948m  
    7.63000n     -7.7888u    799.9951m  
    7.64000n     -7.2918u    799.9953m  
    7.65000n     -6.7949u    799.9955m  
    7.66000n     -6.2980u    799.9958m  
    7.67000n     -5.8011u    799.9960m  
    7.68000n     -5.3041u    799.9962m  
    7.69000n     -4.8072u    799.9964m  
    7.70000n     -4.3103u    799.9967m  
    7.71000n     -3.8134u    799.9969m  
    7.72000n     -3.3165u    799.9971m  
    7.73000n     -2.8195u    799.9974m  
    7.74000n     -2.3226u    799.9976m  
    7.75000n     -1.8257u    799.9978m  
    7.76000n     -1.3288u    799.9981m  
    7.77000n   -831.8484n    799.9983m  
    7.78000n      0.         799.9985m  
    7.79000n      0.         799.9988m  
    7.80000n    658.9178n    799.9990m  
    7.81000n      1.1558u    799.9992m  
    7.82000n      1.6528u    799.9995m  
    7.83000n      2.1497u    799.9997m  
    7.84000n      2.6466u    799.9999m  
    7.85000n      3.1435u    800.0002m  
    7.86000n      3.6404u    800.0004m  
    7.87000n      4.1374u    800.0006m  
    7.88000n      4.6343u    800.0009m  
    7.89000n      5.1312u    800.0011m  
    7.90000n      5.6281u    800.0013m  
    7.91000n      6.1251u    800.0015m  
    7.92000n      6.6220u    800.0018m  
    7.93000n      7.1189u    800.0020m  
    7.94000n      7.6158u    800.0022m  
    7.95000n      8.1127u    800.0025m  
    7.96000n      8.6097u    800.0027m  
    7.97000n      9.1066u    800.0029m  
    7.98000n      9.6035u    800.0032m  
    7.99000n     10.1004u    800.0034m  
    8.00000n     10.5974u    800.0036m  
y
x

        time    voltage      voltage    
                 outin_10     outin_20  
    0.          799.9991m    953.6898n  
   10.00000p    800.0228m      2.6186u  
   20.00000p    800.2781m     15.5437u  
   30.00000p    797.6806m   -586.4304u  
   40.00000p     54.5364m    484.1209m  
   50.00000p    724.9186u    801.4916m  
   60.00000p      9.2647u    800.0139m  
   70.00000p     -6.0476u    799.9868m  
   80.00000p     -9.6426u    799.9810m  
   90.00000p      3.6827u    800.0040m  
  100.00000p     17.0081u    800.0271m  
  110.00000p     14.6273u    800.0229m  
  120.00000p      8.3957u    800.0120m  
  130.00000p      2.1640u    800.0012m  
  140.00000p     -4.0677u    799.9903m  
  150.00000p    -10.2994u    799.9794m  
  160.00000p    -16.5311u    799.9686m  
  170.00000p    -15.3662u    799.9706m  
  180.00000p    -12.5202u    799.9756m  
  190.00000p     -9.6742u    799.9806m  
  200.00000p     -6.8283u    799.9856m  
  210.00000p     -3.9823u    799.9905m  
  220.00000p     -1.1363u    799.9955m  
  230.00000p      1.7097u    800.0005m  
  240.00000p      4.5557u    800.0055m  
  250.00000p      7.4017u    800.0105m  
  260.00000p     10.2477u    800.0154m  
  270.00000p     13.0936u    800.0204m  
  280.00000p     15.9396u    800.0254m  
  290.00000p     18.7856u    800.0304m  
  300.00000p     18.4111u    800.0297m  
  310.00000p     16.8268u    800.0269m  
  320.00000p     15.2424u    800.0242m  
  330.00000p     13.6581u    800.0214m  
  340.00000p     12.0738u    800.0186m  
  350.00000p     10.4894u    800.0158m  
  360.00000p      8.9051u    800.0131m  
  370.00000p      7.3207u    800.0103m  
  380.00000p      5.7364u    800.0075m  
  390.00000p      4.1520u    800.0047m  
  400.00000p      2.5677u    800.0019m  
  410.00000p    983.3121n    799.9992m  
  420.00000p   -601.0365n    799.9964m  
  430.00000p     -2.1854u    799.9936m  
  440.00000p     -3.7697u    799.9908m  
  450.00000p     -5.3541u    799.9881m  
  460.00000p     -6.9384u    799.9853m  
  470.00000p     -8.5228u    799.9825m  
  480.00000p    -10.1071u    799.9797m  
  490.00000p    -11.6915u    799.9770m  
  500.00000p    -13.2758u    799.9742m  
  510.00000p    -14.8602u    799.9714m  
  520.00000p    -16.4445u    799.9686m  
  530.00000p    -17.4275u    799.9669m  
  540.00000p    -16.4976u    799.9685m  
  550.00000p    -15.5678u    799.9702m  
  560.00000p    -14.6380u    799.9718m  
  570.00000p    -13.7081u    799.9734m  
  580.00000p    -12.7783u    799.9751m  
  590.00000p    -11.8485u    799.9767m  
  600.00000p    -10.9187u    799.9783m  
  610.00000p     -9.9888u    799.9800m  
  620.00000p     -9.0590u    799.9816m  
  630.00000p     -8.1292u    799.9832m  
  640.00000p     -7.1994u    799.9848m  
  650.00000p     -6.2695u    799.9865m  
  660.00000p     -5.3397u    799.9881m  
  670.00000p     -4.4099u    799.9897m  
  680.00000p     -3.4800u    799.9914m  
  690.00000p     -2.5502u    799.9930m  
  700.00000p     -1.6204u    799.9946m  
  710.00000p   -690.5551n    799.9963m  
  720.00000p      0.         799.9979m  
  730.00000p      1.1691u    799.9995m  
  740.00000p      2.0989u    800.0012m  
  750.00000p      3.0288u    800.0028m  
  760.00000p      3.9586u    800.0044m  
  770.00000p      4.8884u    800.0061m  
  780.00000p      5.8182u    800.0077m  
  790.00000p      6.7481u    800.0093m  
  800.00000p      7.6779u    800.0109m  
  810.00000p      8.6077u    800.0126m  
  820.00000p      9.5376u    800.0142m  
  830.00000p     10.4674u    800.0158m  
  840.00000p     11.3972u    800.0175m  
  850.00000p     12.3270u    800.0191m  
  860.00000p     13.2569u    800.0207m  
  870.00000p     14.1867u    800.0224m  
  880.00000p     15.1165u    800.0240m  
  890.00000p     16.0463u    800.0256m  
  900.00000p     16.9762u    800.0273m  
  910.00000p     17.9060u    800.0289m  
  920.00000p     18.8358u    800.0305m  
  930.00000p     18.8170u    800.0305m  
  940.00000p     15.7808u    800.0252m  
  950.00000p     12.7447u    800.0198m  
  960.00000p      9.7085u    800.0145m  
  970.00000p      6.6724u    800.0091m  
  980.00000p      3.6363u    800.0038m  
  990.00000p    600.1300n    799.9985m  
    1.00000n     -2.4360u    799.9931m  
    1.01000n     -5.4721u    799.9878m  
    1.02000n     -8.5083u    799.9825m  
    1.03000n    -11.5444u    799.9771m  
    1.04000n    -14.5806u    799.9718m  
    1.05000n    -17.6167u    799.9665m  
    1.06000n      0.         799.9937m  
    1.07000n     -2.0401m    799.9516m  
    1.08000n    117.4700m    805.9070m  
    1.09000n    711.9643m    265.4555m  
    1.10000n    800.8755m    931.6651u  
    1.11000n    800.0023m     12.9596u  
    1.12000n    799.9982m     -1.7879u  
    1.13000n    799.9927m    -28.0336u  
    1.14000n    799.9968m     -9.8527u  
    1.15000n    800.0009m      8.3282u  
    1.16000n    800.0050m     26.5090u  
    1.17000n    800.0060m     30.9822u  
    1.18000n    800.0042m     23.2329u  
    1.19000n    800.0024m     15.4836u  
    1.20000n    800.0006m      7.7343u  
    1.21000n    799.9989m      0.       
    1.22000n    799.9971m     -7.7643u  
    1.23000n    799.9953m    -15.5136u  
    1.24000n    799.9935m    -23.2630u  
    1.25000n    799.9917m    -31.0123u  
    1.26000n    799.9919m    -30.4455u  
    1.27000n    799.9926m    -27.0674u  
    1.28000n    799.9934m    -23.6892u  
    1.29000n    799.9942m    -20.3111u  
    1.30000n    799.9950m    -16.9329u  
    1.31000n    799.9958m    -13.5548u  
    1.32000n    799.9966m    -10.1766u  
    1.33000n    799.9974m     -6.7985u  
    1.34000n    799.9981m     -3.4203u  
    1.35000n    799.9989m      0.       
    1.36000n    799.9997m      3.3360u  
    1.37000n    800.0005m      6.7142u  
    1.38000n    800.0013m     10.0923u  
    1.39000n    800.0021m     13.4705u  
    1.40000n    800.0028m     16.8486u  
    1.41000n    800.0036m     20.2268u  
    1.42000n    800.0044m     23.6049u  
    1.43000n    800.0052m     26.9831u  
    1.44000n    800.0060m     30.3612u  
    1.45000n    800.0068m     33.7394u  
    1.46000n    800.0067m     33.5531u  
    1.47000n    800.0063m     31.7567u  
    1.48000n    800.0059m     29.9604u  
    1.49000n    800.0055m     28.1641u  
    1.50000n    800.0050m     26.3677u  
    1.51000n    800.0046m     24.5714u  
    1.52000n    800.0042m     22.7750u  
    1.53000n    800.0038m     20.9787u  
    1.54000n    800.0034m     19.1824u  
    1.55000n    800.0030m     17.3860u  
    1.56000n    800.0025m     15.5897u  
    1.57000n    800.0021m     13.7934u  
    1.58000n    800.0017m     11.9970u  
    1.59000n    800.0013m     10.2007u  
    1.60000n    800.0009m      8.4043u  
    1.61000n    800.0004m      6.6080u  
    1.62000n    800.0000m      4.8117u  
    1.63000n    799.9996m      3.0153u  
    1.64000n    799.9992m      1.2190u  
    1.65000n    799.9988m   -577.3496n  
    1.66000n    799.9983m     -2.3737u  
    1.67000n    799.9979m     -4.1700u  
    1.68000n    799.9975m     -5.9664u  
    1.69000n    799.9971m     -7.7627u  
    1.70000n    799.9967m     -9.5590u  
    1.71000n    799.9963m    -11.3554u  
    1.72000n    799.9958m    -13.1517u  
    1.73000n    799.9954m    -14.9481u  
    1.74000n    799.9950m    -16.7444u  
    1.75000n    799.9946m    -18.5407u  
    1.76000n    799.9942m    -20.3371u  
    1.77000n    799.9937m    -22.1334u  
    1.78000n    799.9933m    -23.9297u  
    1.79000n    799.9929m    -25.7261u  
    1.80000n    799.9925m    -27.5224u  
    1.81000n    799.9921m    -29.3188u  
    1.82000n    799.9916m    -31.1151u  
    1.83000n    799.9913m    -32.6587u  
    1.84000n    799.9922m    -28.6994u  
    1.85000n    799.9931m    -24.7402u  
    1.86000n    799.9941m    -20.7810u  
    1.87000n    799.9950m    -16.8218u  
    1.88000n    799.9959m    -12.8626u  
    1.89000n    799.9968m     -8.9034u  
    1.90000n    799.9978m     -4.9442u  
    1.91000n    799.9987m   -984.9470n  
    1.92000n    799.9996m      2.9743u  
    1.93000n    800.0006m      6.9335u  
    1.94000n    800.0015m     10.8927u  
    1.95000n    800.0024m     14.8519u  
    1.96000n    800.0033m     18.8111u  
    1.97000n    800.0043m     22.7703u  
    1.98000n    800.0052m     26.7295u  
    1.99000n    800.0061m     30.6888u  
    2.00000n    800.0070m     34.6480u  
    2.01000n    799.9939m      4.3482u  
    2.02000n    801.5244m     33.0649u  
    2.03000n    721.8070m     27.3015m  
    2.04000n     71.0721m    542.2183m  
    2.05000n   -934.2363m      2.7708   
    2.06000n    -75.5493m    812.7977m  
    2.07000n      0.         799.9996m  
    2.08000n     -1.6339u    799.9981m  
    2.09000n      2.7264u    800.0000m  
    2.10000n      5.1983u    800.0026m  
    2.11000n      1.3320u    799.9990m  
    2.12000n      1.3518u    799.9990m  
    2.13000n      1.3423u    799.9990m  
    2.14000n      1.3328u    799.9990m  
    2.15000n      1.3297u    799.9990m  
    2.16000n      1.3329u    799.9990m  
    2.17000n      1.3362u    799.9990m  
    2.18000n      1.3394u    799.9990m  
    2.19000n      1.3427u    799.9990m  
    2.20000n      1.3459u    799.9990m  
    2.21000n      1.3492u    799.9990m  
    2.22000n      1.3524u    799.9990m  
    2.23000n      1.3513u    799.9990m  
    2.24000n      1.3499u    799.9990m  
    2.25000n      1.3484u    799.9990m  
    2.26000n      1.3469u    799.9990m  
    2.27000n      1.3454u    799.9990m  
    2.28000n      1.3439u    799.9990m  
    2.29000n      1.3424u    799.9990m  
    2.30000n      1.3410u    799.9990m  
    2.31000n      1.3395u    799.9990m  
    2.32000n      1.3380u    799.9990m  
    2.33000n      1.3365u    799.9990m  
    2.34000n      1.3350u    799.9990m  
    2.35000n      1.3335u    799.9990m  
    2.36000n      1.3321u    799.9990m  
    2.37000n      1.3306u    799.9990m  
    2.38000n      1.3291u    799.9990m  
    2.39000n      1.3282u    799.9990m  
    2.40000n      1.3288u    799.9990m  
    2.41000n      1.3295u    799.9990m  
    2.42000n      1.3301u    799.9990m  
    2.43000n      1.3307u    799.9990m  
    2.44000n      1.3314u    799.9990m  
    2.45000n      1.3320u    799.9990m  
    2.46000n      1.3327u    799.9990m  
[...]
    3.68000n    799.9991m    953.6762n  
    3.69000n    799.9991m    953.6762n  
    3.70000n    799.9991m    953.6762n  
    3.71000n    799.9991m    953.6762n  
    3.72000n    799.9991m    953.6762n  
    3.73000n    799.9991m    953.6762n  
    3.74000n    799.9991m    953.6762n  
    3.75000n    799.9991m    953.6762n  
    3.76000n    799.9991m    953.6762n  
    3.77000n    799.9991m    953.6762n  
    3.78000n    799.9991m    953.6762n  
    3.79000n    799.9991m    953.6762n  
    3.80000n    799.9991m    953.6762n  
    3.81000n    799.9991m    953.6762n  
    3.82000n    799.9991m    953.6762n  
    3.83000n    799.9991m    953.6762n  
    3.84000n    799.9991m    953.6762n  
    3.85000n    799.9991m    953.6762n  
    3.86000n    799.9991m    953.6762n  
    3.87000n    799.9991m    953.6762n  
    3.88000n    799.9991m    953.6762n  
    3.89000n    799.9991m    953.6762n  
    3.90000n    799.9991m    953.6762n  
    3.91000n    799.9991m    953.6762n  
    3.92000n    799.9991m    953.6762n  
    3.93000n    799.9991m    953.6762n  
    3.94000n    799.9991m    953.6762n  
    3.95000n    799.9991m    953.6762n  
    3.96000n    799.9991m    953.6762n  
    3.97000n    799.9991m    953.6762n  
    3.98000n    799.9991m    953.6762n  
    3.99000n    799.9991m    953.6762n  
    4.00000n    799.9991m    953.6762n  
    4.01000n    799.9991m    953.6762n  
    4.02000n    799.9991m    953.6762n  
    4.03000n    799.9991m    953.6762n  
    4.04000n    799.9991m    953.6762n  
    4.05000n    799.9991m    953.6762n  
    4.06000n    799.9999m     -2.1241u  
    4.07000n    801.2805m     35.4326u  
    4.08000n    805.4128m     96.4695u  
    4.09000n    160.8120m    526.5595m  
    4.10000n     -2.8958m    798.8260m  
    4.11000n    -21.7856u    800.0516m  
    4.12000n      9.2091u    799.9660m  
    4.13000n     -1.5681u    800.0182m  
    4.14000n     -6.9457u    800.0427m  
    4.15000n     -3.2814u    800.0209m  
    4.16000n      0.         799.9992m  
    4.17000n      4.0472u    799.9774m  
    4.18000n      7.7115u    799.9557m  
    4.19000n      7.9518u    799.9549m  
    4.20000n      6.5016u    799.9644m  
    4.21000n      5.0515u    799.9739m  
    4.22000n      3.6013u    799.9834m  
    4.23000n      2.1512u    799.9929m  
    4.24000n    701.0587n    800.0024m  
    4.25000n   -749.0810n    800.0119m  
    4.26000n     -2.1992u    800.0214m  
    4.27000n     -3.6494u    800.0310m  
    4.28000n     -5.0995u    800.0405m  
    4.29000n     -6.4197u    800.0491m  
    4.30000n     -5.7757u    800.0447m  
    4.31000n     -5.1316u    800.0402m  
    4.32000n     -4.4875u    800.0358m  
    4.33000n     -3.8435u    800.0314m  
    4.34000n     -3.1994u    800.0270m  
    4.35000n     -2.5553u    800.0225m  
    4.36000n     -1.9113u    800.0181m  
    4.37000n     -1.2672u    800.0137m  
    4.38000n   -623.1413n    800.0092m  
    4.39000n      0.         800.0048m  
    4.40000n    664.9864n    800.0004m  
    4.41000n      1.3091u    799.9959m  
    4.42000n      1.9531u    799.9915m  
    4.43000n      2.5972u    799.9871m  
    4.44000n      3.2412u    799.9826m  
    4.45000n      3.8853u    799.9782m  
    4.46000n      4.5294u    799.9738m  
    4.47000n      5.1734u    799.9694m  
    4.48000n      5.8175u    799.9649m  
    4.49000n      6.4616u    799.9605m  
    4.50000n      7.1056u    799.9561m  
    4.51000n      7.7497u    799.9516m  
    4.52000n      7.9556u    799.9502m  
    4.53000n      7.6012u    799.9527m  
    4.54000n      7.2469u    799.9552m  
    4.55000n      6.8926u    799.9577m  
    4.56000n      6.5382u    799.9602m  
    4.57000n      6.1839u    799.9627m  
    4.58000n      5.8295u    799.9652m  
    4.59000n      5.4752u    799.9677m  
    4.60000n      5.1209u    799.9702m  
    4.61000n      4.7665u    799.9727m  
    4.62000n      4.4122u    799.9752m  
    4.63000n      4.0578u    799.9777m  
    4.64000n      3.7035u    799.9802m  
    4.65000n      3.3491u    799.9827m  
    4.66000n      2.9948u    799.9852m  
    4.67000n      2.6405u    799.9877m  
    4.68000n      2.2861u    799.9902m  
    4.69000n      1.9318u    799.9927m  
    4.70000n      1.5774u    799.9952m  
    4.71000n      1.2231u    799.9977m  
    4.72000n    868.7559n    800.0002m  
    4.73000n    514.4142n    800.0027m  
    4.74000n      0.         800.0052m  
    4.75000n      0.         800.0077m  
    4.76000n   -548.6111n    800.0102m  
    4.77000n   -902.9529n    800.0127m  
    4.78000n     -1.2573u    800.0152m  
    4.79000n     -1.6116u    800.0177m  
    4.80000n     -1.9660u    800.0202m  
    4.81000n     -2.3203u    800.0227m  
    4.82000n     -2.6747u    800.0252m  
    4.83000n     -3.0290u    800.0277m  
    4.84000n     -3.3833u    800.0302m  
    4.85000n     -3.7377u    800.0327m  
    4.86000n     -4.0920u    800.0352m  
    4.87000n     -4.4464u    800.0377m  
    4.88000n     -4.8007u    800.0402m  
    4.89000n     -5.1551u    800.0427m  
    4.90000n     -5.5094u    800.0452m  
    4.91000n     -5.8637u    800.0477m  
    4.92000n     -5.6181u    800.0458m  
    4.93000n     -4.6053u    800.0384m  
    4.94000n     -3.5924u    800.0310m  
    4.95000n     -2.5796u    800.0236m  
    4.96000n     -1.5668u    800.0162m  
    4.97000n   -553.9921n    800.0088m  
    4.98000n      0.         800.0014m  
    4.99000n      1.4716u    799.9940m  
    5.00000n      2.4845u    799.9866m  
    5.01000n      3.4973u    799.9792m  
    5.02000n      4.5101u    799.9718m  
    5.03000n      5.5229u    799.9644m  
    5.04000n      6.5357u    799.9570m  
    5.05000n      7.5486u    799.9496m  
    5.06000n      0.         799.9998m  
    5.07000n      1.0613u    799.9990m  
    5.08000n      1.3670u    799.9988m  
    5.09000n      1.3628u    799.9985m  
    5.10000n    870.0682n    799.9990m  
    5.11000n    955.3174n    799.9992m  
    5.12000n    952.2737n    799.9992m  
    5.13000n    954.4325n    799.9992m  
    5.14000n    955.6526n    799.9992m  
    5.15000n    954.7351n    799.9992m  
    5.16000n    953.8175n    799.9992m  
    5.17000n    952.9000n    799.9992m  
    5.18000n    951.9824n    799.9992m  
    5.19000n    951.7144n    799.9992m  
    5.20000n    952.1204n    799.9992m  
    5.21000n    952.5263n    799.9992m  
    5.22000n    952.9323n    799.9992m  
    5.23000n    953.3383n    799.9992m  
    5.24000n    953.7443n    799.9992m  
    5.25000n    954.1503n    799.9992m  
    5.26000n    954.5563n    799.9992m  
    5.27000n    954.9623n    799.9992m  
    5.28000n    955.3683n    799.9992m  
    5.29000n    955.7743n    799.9992m  
    5.30000n    955.7900n    799.9992m  
    5.31000n    955.5907n    799.9992m  
    5.32000n    955.3913n    799.9992m  
    5.33000n    955.1920n    799.9992m  
    5.34000n    954.9927n    799.9992m  
    5.35000n    954.7933n    799.9992m  
    5.36000n    954.5940n    799.9992m  
    5.37000n    954.3947n    799.9992m  
    5.38000n    954.1954n    799.9992m  
    5.39000n    953.9960n    799.9992m  
    5.40000n    953.7967n    799.9992m  
    5.41000n    953.5974n    799.9992m  
    5.42000n    953.3981n    799.9992m  
    5.43000n    953.1987n    799.9992m  
    5.44000n    952.9994n    799.9992m  
    5.45000n    952.8001n    799.9992m  
    5.46000n    952.6008n    799.9992m  
    5.47000n    952.4014n    799.9992m  
    5.48000n    952.2021n    799.9992m  
    5.49000n    952.0028n    799.9992m  
    5.50000n    951.8034n    799.9992m  
    5.51000n    951.6041n    799.9992m  
    5.52000n    951.5859n    799.9992m  
    5.53000n    951.6958n    799.9992m  
    5.54000n    951.8056n    799.9992m  
    5.55000n    951.9155n    799.9992m  
    5.56000n    952.0253n    799.9992m  
    5.57000n    952.1351n    799.9992m  
    5.58000n    952.2450n    799.9992m  
    5.59000n    952.3548n    799.9992m  
    5.60000n    952.4647n    799.9992m  
    5.61000n    952.5745n    799.9992m  
    5.62000n    952.6843n    799.9992m  
    5.63000n    952.7942n    799.9992m  
    5.64000n    952.9040n    799.9992m  
    5.65000n    953.0139n    799.9992m  
    5.66000n    953.1237n    799.9992m  
    5.67000n    953.2335n    799.9992m  
    5.68000n    953.3434n    799.9992m  
    5.69000n    953.4532n    799.9992m  
    5.70000n    953.5631n    799.9992m  
    5.71000n    953.6729n    799.9992m  
    5.72000n    953.7827n    799.9992m  
    5.73000n    953.8926n    799.9992m  
    5.74000n    954.0024n    799.9992m  
    5.75000n    954.1123n    799.9992m  
    5.76000n    954.2221n    799.9992m  
    5.77000n    954.3319n    799.9992m  
    5.78000n    954.4418n    799.9992m  
    5.79000n    954.5516n    799.9992m  
    5.80000n    954.6615n    799.9992m  
    5.81000n    954.7713n    799.9992m  
    5.82000n    954.8811n    799.9992m  
    5.83000n    954.9910n    799.9992m  
    5.84000n    955.1008n    799.9992m  
    5.85000n    955.2107n    799.9992m  
    5.86000n    955.3205n    799.9992m  
    5.87000n    955.4304n    799.9992m  
    5.88000n    955.5402n    799.9992m  
    5.89000n    955.6500n    799.9992m  
    5.90000n    955.7599n    799.9992m  
    5.91000n    955.8697n    799.9992m  
    5.92000n    955.6158n    799.9992m  
    5.93000n    955.1049n    799.9992m  
    5.94000n    954.5939n    799.9992m  
    5.95000n    954.0830n    799.9992m  
    5.96000n    953.5720n    799.9992m  
    5.97000n    953.0611n    799.9992m  
    5.98000n    952.5501n    799.9992m  
    5.99000n    952.0392n    799.9992m  
    6.00000n    951.5282n    799.9992m  
    6.01000n    953.7107n    799.9992m  
    6.02000n    953.6772n    799.9992m  
    6.03000n    953.6897n    799.9992m  
    6.04000n    953.6900n    799.9992m  
    6.05000n    953.6898n    799.9992m  
    6.06000n    953.6898n    799.9992m  
    6.07000n    953.6898n    799.9992m  
    6.08000n    953.6898n    799.9992m  
    6.09000n    953.6898n    799.9992m  
    6.10000n    953.6898n    799.9992m  
    6.11000n    953.6898n    799.9992m  
    6.12000n    953.6898n    799.9992m  
    6.13000n    953.6898n    799.9992m  
    6.14000n    953.6898n    799.9992m  
    6.15000n    953.6898n    799.9992m  
    6.16000n    953.6898n    799.9992m  
    6.17000n    953.6898n    799.9992m  
    6.18000n    953.6898n    799.9992m  
    6.19000n    953.6898n    799.9992m  
    6.20000n    953.6898n    799.9992m  
    6.21000n    953.6898n    799.9992m  
    6.22000n    953.6898n    799.9992m  
    6.23000n    953.6898n    799.9992m  
    6.24000n    953.6898n    799.9992m  
    6.25000n    953.6898n    799.9992m  
    6.26000n    953.6898n    799.9992m  
    6.27000n    953.6898n    799.9992m  
    6.28000n    953.6898n    799.9992m  
    6.29000n    953.6898n    799.9992m  
    6.30000n    953.6898n    799.9992m  
    6.31000n    953.6898n    799.9992m  
    6.32000n    953.6898n    799.9992m  
    6.33000n    953.6898n    799.9992m  
    6.34000n    953.6898n    799.9992m  
    6.35000n    953.6898n    799.9992m  
    6.36000n    953.6898n    799.9992m  
    6.37000n    953.6898n    799.9992m  
    6.38000n    953.6898n    799.9992m  
    6.39000n    953.6898n    799.9992m  
    6.40000n    953.6898n    799.9992m  
    6.41000n    953.6898n    799.9992m  
    6.42000n    953.6898n    799.9992m  
    6.43000n    953.6898n    799.9992m  
    6.44000n    953.6898n    799.9992m  
    6.45000n    953.6898n    799.9992m  
    6.46000n    953.6898n    799.9992m  
    6.47000n    953.6898n    799.9992m  
    6.48000n    953.6898n    799.9992m  
    6.49000n    953.6898n    799.9992m  
    6.50000n    953.6898n    799.9992m  
    6.51000n    953.6898n    799.9992m  
    6.52000n    953.6898n    799.9992m  
    6.53000n    953.6898n    799.9992m  
    6.54000n    953.6898n    799.9992m  
    6.55000n    953.6898n    799.9992m  
    6.56000n    953.6898n    799.9992m  
    6.57000n    953.6898n    799.9992m  
    6.58000n    953.6898n    799.9992m  
    6.59000n    953.6898n    799.9992m  
    6.60000n    953.6898n    799.9992m  
    6.61000n    953.6898n    799.9992m  
    6.62000n    953.6898n    799.9992m  
    6.63000n    953.6898n    799.9992m  
    6.64000n    953.6898n    799.9992m  
    6.65000n    953.6898n    799.9992m  
    6.66000n    953.6898n    799.9992m  
    6.67000n    953.6898n    799.9992m  
    6.68000n    953.6898n    799.9992m  
    6.69000n    953.6898n    799.9992m  
    6.70000n    953.6898n    799.9992m  
    6.71000n    953.6898n    799.9992m  
    6.72000n    953.6898n    799.9992m  
    6.73000n    953.6898n    799.9992m  
    6.74000n    953.6898n    799.9992m  
    6.75000n    953.6898n    799.9992m  
    6.76000n    953.6898n    799.9992m  
    6.77000n    953.6898n    799.9992m  
    6.78000n    953.6898n    799.9992m  
    6.79000n    953.6898n    799.9992m  
    6.80000n    953.6898n    799.9992m  
    6.81000n    953.6898n    799.9992m  
    6.82000n    953.6898n    799.9992m  
    6.83000n    953.6898n    799.9992m  
    6.84000n    953.6898n    799.9992m  
    6.85000n    953.6898n    799.9992m  
    6.86000n    953.6898n    799.9992m  
    6.87000n    953.6898n    799.9992m  
    6.88000n    953.6898n    799.9992m  
    6.89000n    953.6898n    799.9992m  
    6.90000n    953.6898n    799.9992m  
    6.91000n    953.6898n    799.9992m  
    6.92000n    953.6898n    799.9992m  
    6.93000n    953.6898n    799.9992m  
    6.94000n    953.6898n    799.9992m  
    6.95000n    953.6898n    799.9992m  
    6.96000n    953.6898n    799.9992m  
    6.97000n    953.6898n    799.9992m  
    6.98000n    953.6898n    799.9992m  
    6.99000n    953.6898n    799.9992m  
    7.00000n    953.6898n    799.9992m  
    7.01000n    953.6898n    799.9992m  
    7.02000n    953.6898n    799.9992m  
    7.03000n    953.6898n    799.9992m  
    7.04000n    953.6898n    799.9992m  
    7.05000n    953.6898n    799.9992m  
    7.06000n    953.6898n    799.9992m  
    7.07000n    953.6898n    799.9992m  
    7.08000n    953.6898n    799.9992m  
    7.09000n    953.6898n    799.9992m  
    7.10000n    953.6898n    799.9992m  
    7.11000n    953.6898n    799.9992m  
    7.12000n    953.6898n    799.9992m  
    7.13000n    953.6898n    799.9992m  
    7.14000n    953.6898n    799.9992m  
    7.15000n    953.6898n    799.9992m  
    7.16000n    953.6898n    799.9992m  
    7.17000n    953.6898n    799.9992m  
    7.18000n    953.6898n    799.9992m  
    7.19000n    953.6898n    799.9992m  
    7.20000n    953.6898n    799.9992m  
    7.21000n    953.6898n    799.9992m  
    7.22000n    953.6898n    799.9992m  
    7.23000n    953.6898n    799.9992m  
    7.24000n    953.6898n    799.9992m  
    7.25000n    953.6898n    799.9992m  
    7.26000n    953.6898n    799.9992m  
    7.27000n    953.6898n    799.9992m  
    7.28000n    953.6898n    799.9992m  
    7.29000n    953.6898n    799.9992m  
    7.30000n    953.6898n    799.9992m  
    7.31000n    953.6898n    799.9992m  
    7.32000n    953.6898n    799.9992m  
    7.33000n    953.6898n    799.9992m  
    7.34000n    953.6898n    799.9992m  
    7.35000n    953.6898n    799.9992m  
    7.36000n    953.6898n    799.9992m  
    7.37000n    953.6898n    799.9992m  
    7.38000n    953.6898n    799.9992m  
    7.39000n    953.6898n    799.9992m  
    7.40000n    953.6898n    799.9992m  
    7.41000n    953.6898n    799.9992m  
    7.42000n    953.6898n    799.9992m  
    7.43000n    953.6898n    799.9992m  
    7.44000n    953.6898n    799.9992m  
    7.45000n    953.6898n    799.9992m  
    7.46000n    953.6898n    799.9992m  
    7.47000n    953.6898n    799.9992m  
    7.48000n    953.6898n    799.9992m  
    7.49000n    953.6898n    799.9992m  
    7.50000n    953.6898n    799.9992m  
    7.51000n    953.6898n    799.9992m  
    7.52000n    953.6898n    799.9992m  
    7.53000n    953.6898n    799.9992m  
    7.54000n    953.6898n    799.9992m  
    7.55000n    953.6898n    799.9992m  
    7.56000n    953.6898n    799.9992m  
    7.57000n    953.6898n    799.9992m  
    7.58000n    953.6898n    799.9992m  
    7.59000n    953.6898n    799.9992m  
    7.60000n    953.6898n    799.9992m  
    7.61000n    953.6898n    799.9992m  
    7.62000n    953.6898n    799.9992m  
    7.63000n    953.6898n    799.9992m  
    7.64000n    953.6898n    799.9992m  
    7.65000n    953.6898n    799.9992m  
    7.66000n    953.6898n    799.9992m  
    7.67000n    953.6898n    799.9992m  
    7.68000n    953.6898n    799.9992m  
    7.69000n    953.6898n    799.9992m  
    7.70000n    953.6898n    799.9992m  
    7.71000n    953.6898n    799.9992m  
    7.72000n    953.6898n    799.9992m  
    7.73000n    953.6898n    799.9992m  
    7.74000n    953.6898n    799.9992m  
    7.75000n    953.6898n    799.9992m  
    7.76000n    953.6898n    799.9992m  
    7.77000n    953.6898n    799.9992m  
    7.78000n    953.6898n    799.9992m  
    7.79000n    953.6898n    799.9992m  
    7.80000n    953.6898n    799.9992m  
    7.81000n    953.6898n    799.9992m  
    7.82000n    953.6898n    799.9992m  
    7.83000n    953.6898n    799.9992m  
    7.84000n    953.6898n    799.9992m  
    7.85000n    953.6898n    799.9992m  
    7.86000n    953.6898n    799.9992m  
    7.87000n    953.6898n    799.9992m  
    7.88000n    953.6898n    799.9992m  
    7.89000n    953.6898n    799.9992m  
    7.90000n    953.6898n    799.9992m  
    7.91000n    953.6898n    799.9992m  
    7.92000n    953.6898n    799.9992m  
    7.93000n    953.6898n    799.9992m  
    7.94000n    953.6898n    799.9992m  
    7.95000n    953.6898n    799.9992m  
    7.96000n    953.6898n    799.9992m  
    7.97000n    953.6898n    799.9992m  
    7.98000n    953.6898n    799.9992m  
    7.99000n    953.6898n    799.9992m  
    8.00000n    953.6898n    799.9992m  
y
 inv_avg_power00= 336.5794n  from=   0.          to=   8.0000n
 peakpower00= 228.7639u    at=   2.0550n
             from=   0.         to=   8.0000n
 power_avg=   2.4280u  from=   0.          to=   8.0000n
 avg_power=-1.058e+12  from=   0.          to=   8.0000n

          ***** job concluded
1****** HSPICE -- F-2011.09-SP2 64-BIT (Feb 27 2012) linux ******               
 ******  
 $this uut was automatically generated by:

  ******  job statistics summary tnom=  25.000 temp=  25.000 *****
  
  
 ******  Machine Information  ******
 CPU:
 model name	: Intel(R) Xeon(R) CPU E5-2650 v4 @ 2.20GHz
 cpu MHz	: 2676.179
  
 OS:
 Linux version 3.10.0-693.17.1.el7.x86_64 (mockbuild@x86-041.build.eng.bos.redha
 t.com) (gcc version 4.8.5 20150623 (Red Hat 4.8.5-16) (GCC) ) #1 SMP Sun Jan 14
  10:36:03 EST 2018


  ******  HSPICE Threads Information  ******

  Command Line Threads Count :     1
  Available CPU Count        :    24
  Actual Threads Count       :     1


  ******  Circuit Statistics  ******
  # nodes       =      83 # elements   =      34
  # resistors   =       0 # capacitors =       0 # inductors   =       0
  # mutual_inds =       0 # vccs       =       0 # vcvs        =       0
  # cccs        =       0 # ccvs       =       0 # volt_srcs   =       4
  # curr_srcs   =       0 # diodes     =       0 # bjts        =       0
  # jfets       =       0 # mosfets    =      30 # U elements  =       0
  # T elements  =       0 # W elements =       0 # B elements  =       0
  # S elements  =       0 # P elements =       0 # va device   =       0
  # vector_srcs =       0


  ******  Runtime Statistics (seconds)  ******

  analysis           time    # points   tot. iter  conv.iter
  op point           0.03           1         113
  transient          0.16         801        1545         282 rev=        16
  readin             0.01
  errchk             0.00
  setup              0.00
  output             0.00


           peak memory used        135.46 megabytes
           total cpu time            0.20 seconds
           total elapsed time        0.47 seconds
           job started at     18:49:40 09/11/2020
           job ended   at     18:49:41 09/11/2020


 lic: Release hspice token(s) 
