$DATA1 SOURCE='HSPICE' VERSION='F-2011.09-SP2 64-BIT'
.TITLE '$this uut was automatically generated by:'
 inv_avg_power00  peakpower00      inv_avg_power10  peakpower10       
 inv_avg_power01  peakpower01      inv_avg_power11  peakpower11       
 uut_grid_avg_power uut_grid_max_power source_power      
 trf_delay_001    tfr_delay_001    trf_delay_002    tfr_delay_002     
 trf_delay_101    tfr_delay_101    trf_delay_102    tfr_delay_102     
 trf_delay_011    tfr_delay_011    trf_delay_111    tfr_delay_111     
 temper           alter#            
  3.153e-06        9.433e-04        8.218e-08        2.937e-05        
  6.142e-08        1.847e-05        2.123e-08        1.416e-05        
  3.318e-06        9.434e-04        4.182e-06        5.117e-12        
  5.798e-12        5.444e-12        5.150e-12        2.893e-12        
  2.317e-12        3.838e-12        3.111e-12        5.117e-12        
  4.971e-12        1.174e-12        2.317e-12         25.0000         
 1                 
