$DATA1 SOURCE='HSPICE' VERSION='F-2011.09-SP2 64-BIT'
.TITLE '$this uut was automatically generated by:'
 inv_avg_power0   peakpower0       trf_delay_01     tfr_delay_01      
 trf_delay_02     tfr_delay_02     trf_delay_03     tfr_delay_03      
 trf_delay_04     tfr_delay_04     inv_avg_power1   peakpower1        
 trf_delay_11     tfr_delay_11     trf_delay_12     tfr_delay_12      
 inv_avg_power2   peakpower2       trf_delay_21     tfr_delay_21      
 power_avg        avg_power        temper           alter#            
  1.228e-07        1.981e-05        5.225e-12        6.246e-12        
  5.917e-12        5.892e-12        6.051e-12        5.898e-12        
  5.549e-12        5.898e-12        6.831e-08        1.881e-05        
  5.225e-12        6.338e-12        6.051e-12        5.851e-12        
  3.201e-08        1.881e-05        5.225e-12        5.996e-12        
  4.300e-07       -3.600e-07         25.0000        1                 
