$DATA1 SOURCE='HSPICE' VERSION='F-2011.09-SP2 64-BIT'
.TITLE '$this uut was automatically generated by:'
 inv_avg_power0   peakpower0       trf_delay_01     tfr_delay_01      
 trf_delay_02     tfr_delay_02     trf_delay_03     tfr_delay_03      
 trf_delay_04     tfr_delay_04     inv_avg_power1   peakpower1        
 trf_delay_11     tfr_delay_11     trf_delay_12     tfr_delay_12      
 inv_avg_power2   peakpower2       trf_delay_21     tfr_delay_21      
 power_avg        avg_power        temper           alter#            
  7.581e-06        1.391e-03        3.340e-12        3.492e-12        
  3.290e-12        3.432e-12        9.457e-10        1.994e-09        
  2.004e-09        2.002e-09        5.127e-06        1.391e-03        
  3.340e-12        3.491e-12        3.384e-12        3.615e-12        
  3.437e-06        1.391e-03        3.340e-12        3.812e-12        
  2.291e-05        2.932e+13         25.0000        1                 
