***** HSPICE -- F-2011.09-SP2 64-BIT (Feb 27 2012) linux ******
 Input File: ptm14hp.sp
 lic:
 lic: FLEXlm: v10.8
 lic: USER:   iliabautista         HOSTNAME: itn2.rc.usf.edu
 lic: HOSTID:                      PID:      17625
 lic: Using FLEXlm license file:
 lic: 27000@license0.rc.usf.edu
 lic: Checkout 1 hspice
 lic: License/Maintenance for hspice will expire on 18-jul-2021/2019.06
 lic: 1(in_use)/50(total) FLOATING license(s) on SERVER license0.rc.usf.edu
 lic:
 init: begin read circuit files,  cpu clock=  3.00E-02
       option post     =     2.00
 init: end read circuit files,  cpu clock=  3.00E-02 memory=       158 kb
 init: begin check errors,  cpu clock=  3.00E-02
 **warning**  No DC path to ground from node        0:                outin_40
 init: end check errors,  cpu clock=  3.00E-02 memory=       424 kb
 init: begin setup matrix, pivot=     0 cpu clock=  3.00E-02
       establish matrix -- done,  cpu clock=  3.00E-02 memory=       478 kb
       re-order matrix -- done,  cpu clock=  3.00E-02 memory=       468 kb
 init: end setup matrix,  cpu clock=  3.00E-02 memory=       563 kb
 dcop: begin dcop,  cpu clock=  3.00E-02
 dcop: end dcop,  cpu clock=  6.00E-02 memory=       563 kb  tot_iter=     118
 output: ptm14hp.mt0
 sweep: tran tran0    begin, stop_t=  8.00E-09 #sweeps= 801 cpu clock=  6.00E-02
 tran: time= 8.3279E-10 tot_iter=     289 conv_iter=      33 cpu clock= 1.30E-01
 tran: time= 1.8078E-09 tot_iter=     420 conv_iter=      67 cpu clock= 1.40E-01
 tran: time= 2.5535E-09 tot_iter=     627 conv_iter=     114 cpu clock= 1.60E-01
 tran: time= 3.2065E-09 tot_iter=     789 conv_iter=     138 cpu clock= 1.80E-01
 tran: time= 4.0000E-09 tot_iter=     795 conv_iter=     141 cpu clock= 1.80E-01
 tran: time= 4.8309E-09 tot_iter=    1167 conv_iter=     202 cpu clock= 2.30E-01
 tran: time= 5.8131E-09 tot_iter=    1300 conv_iter=     236 cpu clock= 2.40E-01
 tran: time= 6.6234E-09 tot_iter=    1578 conv_iter=     287 cpu clock= 2.70E-01
 tran: time= 7.2163E-09 tot_iter=    2008 conv_iter=     325 cpu clock= 3.10E-01
 tran: time= 8.0000E-09 tot_iter=    2018 conv_iter=     330 cpu clock= 3.10E-01
 sweep: tran tran0    end,  cpu clock=  3.10E-01 memory=       564 kb
>info:         ***** hspice job concluded
 lic: Release hspice token(s)
