$DATA1 SOURCE='HSPICE' VERSION='F-2011.09-SP2 64-BIT'
.TITLE '$this uut was automatically generated by:'
 inv_avg_power00  peakpower00      inv_avg_power10  peakpower10       
 inv_avg_power01  peakpower01      inv_avg_power11  peakpower11       
 uut_grid_avg_power uut_grid_max_power source_power      
 trf_delay_001    tfr_delay_001    trf_delay_002    tfr_delay_002     
 trf_delay_101    tfr_delay_101    trf_delay_102    tfr_delay_102     
 trf_delay_011    tfr_delay_011    trf_delay_111    tfr_delay_111     
 temper           alter#            
  4.482e-06        9.758e-04        2.518e-07        3.217e-05        
  3.774e-06        9.758e-04        2.053e-07        3.727e-05        
  8.714e-06        1.955e-03        1.182e-05        3.173e-12        
  1.042e-09        1.994e-09        2.004e-09       -4.386e-13        
  8.364e-13        2.005e-12       -4.596e-13        3.173e-12        
  2.043e-09        1.568e-12        8.364e-13         25.0000         
 1                 
