$DATA1 SOURCE='HSPICE' VERSION='F-2011.09-SP2 64-BIT'
.TITLE '$this uut was automatically generated by:'
 trf_delay_001    tfr_delay_001    trf_delay_002    tfr_delay_002     
 trf_delay_003    tfr_delay_003    trf_delay_004    tfr_delay_004     
 trf_delay_101    tfr_delay_101    trf_delay_102    tfr_delay_102     
 trf_delay_103    tfr_delay_103    trf_delay_104    tfr_delay_104     
 trf_delay_201    tfr_delay_201    trf_delay_202    tfr_delay_202     
 trf_delay_203    tfr_delay_203    trf_delay_204    tfr_delay_204     
 trf_delay_011    tfr_delay_011    trf_delay_012    tfr_delay_012     
 trf_delay_111    tfr_delay_111    trf_delay_112    tfr_delay_112     
 trf_delay_211    tfr_delay_211    trf_delay_212    tfr_delay_212     
 trf_delay_021    tfr_delay_021    trf_delay_121    tfr_delay_121     
 trf_delay_221    tfr_delay_221    inv_avg_power00  peakpower00       
 power_avg        avg_power        temper           alter#            
  2.239e-12       -1.042e-09       -1.993e-09       -1.998e-09        
 -1.998e-09       -1.999e-09       -1.998e-09       -1.998e-09        
  1.046e-09        1.904e-12        1.999e-09        1.997e-09        
  2.003e-09        2.002e-09        2.001e-09        2.002e-09        
  6.423e-13       -1.046e-09       -1.997e-09       -1.996e-09        
 -1.999e-09       -2.004e-09       -1.999e-09       -1.999e-09        
  2.239e-12       -2.042e-09       -3.993e-09       -3.999e-09        
  2.044e-09        1.904e-12        4.000e-09        3.996e-09        
  6.423e-13       -2.043e-09       -3.997e-09       -4.000e-09        
  2.239e-12       -4.042e-09        4.046e-09        1.904e-12        
  6.423e-13       -4.046e-09        2.955e-06        6.542e-04        
  2.754e-05        3.602e+13         25.0000        1                 
