$DATA1 SOURCE='HSPICE' VERSION='F-2011.09-SP2 64-BIT'
.TITLE '$this uut was automatically generated by:'
 trf_delay_001    tfr_delay_001    trf_delay_002    tfr_delay_002     
 trf_delay_101    tfr_delay_101    trf_delay_102    tfr_delay_102     
 trf_delay_011    tfr_delay_011    trf_delay_111    tfr_delay_111     
 inv_avg_power00  peakpower00      inv_avg_power10  peakpower10       
 inv_avg_power01  peakpower01      inv_avg_power11  peakpower11       
 source_power     temper           alter#            
  2.244e-12        1.898e-12        2.243e-12        2.487e-12        
 -2.343e-13        2.677e-13        7.166e-13        1.084e-12        
  2.244e-12        2.482e-12        7.519e-13        2.677e-13        
  6.930e-07        2.052e-05        5.910e-07        1.850e-05        
  4.385e-06        1.463e-03        5.605e-07        1.885e-05        
  1.034e-05         25.0000        1                 
