***** HSPICE -- F-2011.09-SP2 64-BIT (Feb 27 2012) linux ******
 Input File: ptm16lstp.sp
 lic:
 lic: FLEXlm: v10.8
 lic: USER:   iliabautista         HOSTNAME: itn3.rc.usf.edu
 lic: HOSTID:                      PID:      5070
 lic: Using FLEXlm license file:
 lic: 27000@license0.rc.usf.edu
 lic: Checkout 1 hspice
 lic: License/Maintenance for hspice will expire on 18-jul-2021/2019.06
 lic: 1(in_use)/50(total) FLOATING license(s) on SERVER license0.rc.usf.edu
 lic:
 init: begin read circuit files,  cpu clock=  3.00E-02
       option post     =     2.00
 init: end read circuit files,  cpu clock=  3.00E-02 memory=       156 kb
 init: begin check errors,  cpu clock=  3.00E-02
 **warning**  No DC path to ground from node        0:                outin_30
 init: end check errors,  cpu clock=  4.00E-02 memory=       288 kb
 init: begin setup matrix, pivot=     0 cpu clock=  4.00E-02
       establish matrix -- done,  cpu clock=  4.00E-02 memory=       317 kb
       re-order matrix -- done,  cpu clock=  4.00E-02 memory=       312 kb
 init: end setup matrix,  cpu clock=  4.00E-02 memory=       367 kb
 dcop: begin dcop,  cpu clock=  4.00E-02
 dcop: end dcop,  cpu clock=  5.00E-02 memory=       367 kb  tot_iter=      75
 output: ptm16lstp.mt0
 sweep: tran tran0    begin, stop_t=  4.00E-09 #sweeps= 401 cpu clock=  5.00E-02
 tran: time= 4.5035E-10 tot_iter=      95 conv_iter=      24 cpu clock= 6.00E-02
 tran: time= 8.5035E-10 tot_iter=      99 conv_iter=      26 cpu clock= 6.00E-02
 tran: time= 1.2332E-09 tot_iter=     229 conv_iter=      45 cpu clock= 7.00E-02
 tran: time= 1.7963E-09 tot_iter=     235 conv_iter=      48 cpu clock= 7.00E-02
 tran: time= 2.0000E-09 tot_iter=     237 conv_iter=      49 cpu clock= 7.00E-02
 tran: time= 2.4704E-09 tot_iter=     478 conv_iter=      83 cpu clock= 9.00E-02
 tran: time= 2.8704E-09 tot_iter=     482 conv_iter=      85 cpu clock= 9.00E-02
 tran: time= 3.2713E-09 tot_iter=    1019 conv_iter=     129 cpu clock= 1.20E-01
 tran: time= 3.6713E-09 tot_iter=    1023 conv_iter=     131 cpu clock= 1.20E-01
 tran: time= 4.0000E-09 tot_iter=    1027 conv_iter=     133 cpu clock= 1.20E-01
 sweep: tran tran0    end,  cpu clock=  1.20E-01 memory=       368 kb
>info:         ***** hspice job concluded
 lic: Release hspice token(s)
