$DATA1 SOURCE='HSPICE' VERSION='F-2011.09-SP2 64-BIT'
.TITLE '$this uut was automatically generated by:'
 inv_avg_power0   peakpower0       trf_delay_01     tfr_delay_01      
 trf_delay_02     tfr_delay_02     trf_delay_03     tfr_delay_03      
 trf_delay_04     tfr_delay_04     inv_avg_power1   peakpower1        
 trf_delay_11     tfr_delay_11     trf_delay_12     tfr_delay_12      
 inv_avg_power2   peakpower2       trf_delay_21     tfr_delay_21      
 power_avg        avg_power        temper           alter#            
  2.733e-06        1.384e-03        3.226e-12        3.381e-12        
  3.057e-12        3.354e-12        3.248e-12        2.996e-12        
  2.980e-12        3.506e-12        6.265e-07        2.371e-05        
  3.226e-12        3.178e-12        3.248e-12        3.594e-12        
  5.715e-07        2.349e-05        3.226e-12        2.524e-12        
  9.972e-06        1.508e+12         25.0000        1                 
