$DATA1 SOURCE='HSPICE' VERSION='F-2011.09-SP2 64-BIT'
.TITLE '$this uut was automatically generated by:'
 power_avg        avg_power        inv_avg_power    peakpower         
 trf_delay_1      tfr_delay_1      trf_delay_2      tfr_delay_2       
 temper           alter#            
  3.466e-07       -2.726e-07        1.669e-07        1.889e-05        
  7.882e-12        7.480e-12        7.704e-12        8.002e-12        
   25.0000        1                 
