$DATA1 SOURCE='HSPICE' VERSION='F-2011.09-SP2 64-BIT'
.TITLE '$this uut was automatically generated by:'
 power_avg        avg_power        inv_avg_power    peakpower         
 trf_delay_1      tfr_delay_1      trf_delay_2      tfr_delay_2       
 temper           alter#            
  2.305e-06       -2.161e-06        5.847e-07        3.455e-05        
  5.875e-12        8.042e-12        5.696e-12        7.942e-12        
   25.0000        1                 
