***** HSPICE -- F-2011.09-SP2 64-BIT (Feb 27 2012) linux ******
 Input File: ptm10hp.sp
 lic:
 lic: FLEXlm: v10.8
 lic: USER:   iliabautista         HOSTNAME: itn0.rc.usf.edu
 lic: HOSTID:                      PID:      99645
 lic: Using FLEXlm license file:
 lic: 27000@license0.rc.usf.edu
 lic: Checkout 1 hspice
 lic: License/Maintenance for hspice will expire on 18-jul-2021/2019.06
 lic: 1(in_use)/50(total) FLOATING license(s) on SERVER license0.rc.usf.edu
 lic:
 init: begin read circuit files,  cpu clock=  2.00E-02
       option post     =     2.00
 init: end read circuit files,  cpu clock=  3.00E-02 memory=       162 kb
 init: begin check errors,  cpu clock=  3.00E-02
 init: end check errors,  cpu clock=  6.00E-02 memory=       296 kb
 init: begin setup matrix, pivot=     0 cpu clock=  6.00E-02
       establish matrix -- done,  cpu clock=  6.00E-02 memory=       338 kb
       re-order matrix -- done,  cpu clock=  6.00E-02 memory=       330 kb
 init: end setup matrix,  cpu clock=  6.00E-02 memory=       408 kb
 dcop: begin dcop,  cpu clock=  6.00E-02
 dcop: end dcop,  cpu clock=  6.00E-02 memory=       408 kb  tot_iter=       5
 output: ptm10hp.mt0
 sweep: tran tran0    begin, stop_t=  8.00E-09 #sweeps= 801 cpu clock=  6.00E-02
 tran: time= 1.0500E-09 tot_iter=      92 conv_iter=      25 cpu clock= 8.00E-02
 tran: time= 2.0000E-09 tot_iter=     190 conv_iter=      49 cpu clock= 9.00E-02
 tran: time= 2.5104E-09 tot_iter=     345 conv_iter=      83 cpu clock= 1.10E-01
 tran: time= 3.2625E-09 tot_iter=     466 conv_iter=     115 cpu clock= 1.20E-01
 tran: time= 4.0000E-09 tot_iter=     472 conv_iter=     118 cpu clock= 1.20E-01
 tran: time= 4.8122E-09 tot_iter=     653 conv_iter=     159 cpu clock= 1.50E-01
 tran: time= 5.7617E-09 tot_iter=     748 conv_iter=     185 cpu clock= 1.60E-01
 tran: time= 6.5878E-09 tot_iter=     946 conv_iter=     228 cpu clock= 1.80E-01
 tran: time= 7.2985E-09 tot_iter=    1213 conv_iter=     264 cpu clock= 2.10E-01
 tran: time= 8.0000E-09 tot_iter=    1217 conv_iter=     266 cpu clock= 2.10E-01
 sweep: tran tran0    end,  cpu clock=  2.10E-01 memory=       409 kb
>info:         ***** hspice job concluded
 lic: Release hspice token(s)
