***** HSPICE -- F-2011.09-SP2 64-BIT (Feb 27 2012) linux ******
 Input File: ptm16hp.sp
 lic:
 lic: FLEXlm: v10.8
 lic: USER:   iliabautista         HOSTNAME: itn1.rc.usf.edu
 lic: HOSTID:                      PID:      182822
 lic: Using FLEXlm license file:
 lic: 27000@license0.rc.usf.edu
 lic: Checkout 1 hspice
 lic: License/Maintenance for hspice will expire on 18-jul-2021/2019.06
 lic: 1(in_use)/50(total) FLOATING license(s) on SERVER license0.rc.usf.edu
 lic:
 init: begin read circuit files,  cpu clock=  3.00E-02
       option post     =     2.00
 init: end read circuit files,  cpu clock=  3.00E-02 memory=       155 kb
 init: begin check errors,  cpu clock=  3.00E-02
 **warning**  No DC path to ground from node        0:                outin_30
 init: end check errors,  cpu clock=  3.00E-02 memory=       287 kb
 init: begin setup matrix, pivot=     0 cpu clock=  3.00E-02
       establish matrix -- done,  cpu clock=  3.00E-02 memory=       316 kb
       re-order matrix -- done,  cpu clock=  3.00E-02 memory=       311 kb
 init: end setup matrix,  cpu clock=  3.00E-02 memory=       366 kb
 dcop: begin dcop,  cpu clock=  3.00E-02
 dcop: end dcop,  cpu clock=  6.00E-02 memory=       366 kb  tot_iter=     221
 output: ptm16hp.mt0
 sweep: tran tran0    begin, stop_t=  4.00E-09 #sweeps= 401 cpu clock=  6.00E-02
 tran: time= 4.9319E-10 tot_iter=     395 conv_iter=      39 cpu clock= 1.10E-01
 tran: time= 8.9319E-10 tot_iter=     399 conv_iter=      41 cpu clock= 1.10E-01
 tran: time= 1.2526E-09 tot_iter=     686 conv_iter=      76 cpu clock= 1.40E-01
 tran: time= 1.6124E-09 tot_iter=     692 conv_iter=      78 cpu clock= 1.40E-01
 tran: time= 2.0000E-09 tot_iter=     697 conv_iter=      80 cpu clock= 1.40E-01
 tran: time= 2.5197E-09 tot_iter=    1285 conv_iter=     142 cpu clock= 1.80E-01
 tran: time= 2.9197E-09 tot_iter=    1289 conv_iter=     144 cpu clock= 1.80E-01
 tran: time= 3.3106E-09 tot_iter=    1431 conv_iter=     165 cpu clock= 1.90E-01
 tran: time= 3.7106E-09 tot_iter=    1435 conv_iter=     167 cpu clock= 1.90E-01
 tran: time= 4.0000E-09 tot_iter=    1439 conv_iter=     169 cpu clock= 1.90E-01
 sweep: tran tran0    end,  cpu clock=  1.90E-01 memory=       367 kb
>info:         ***** hspice job concluded
 lic: Release hspice token(s)
