 ****** HSPICE -- F-2011.09-SP2 64-BIT (Feb 27 2012) linux ******               
  Copyright (C) 2011 Synopsys, Inc. All Rights Reserved.                        
  Unpublished-rights reserved under US copyright laws.
  This program is protected by law and is subject to the
  terms and conditions of the license agreement from Synopsys.
  Use of this program is your acceptance to be bound by the
  license agreement. HSPICE is the trademark of Synopsys, Inc.
  Input File: ptm10hp.sp                                                        
  Command line options: ptm10hp.sp
 lic:  
 lic: FLEXlm: v10.8 
 lic: USER:   iliabautista         HOSTNAME: itn1.rc.usf.edu 
 lic: HOSTID:                      PID:      182828 
 lic: Using FLEXlm license file: 
 lic: 27000@license0.rc.usf.edu 
 lic: Checkout 1 hspice 
 lic: License/Maintenance for hspice will expire on 18-jul-2021/2019.06 
 lic: 1(in_use)/50(total) FLOATING license(s) on SERVER license0.rc.usf.edu 
 lic:   
  **warning** (../modelfiles/hp/10nfet.pm:4) Model nfet device geometries will not be checked against the limits set by lmin, lmax, nfinmin and nfinmax. To enable this check, add a period(.) to the model name(i.e. enable model selector).
1****** HSPICE -- F-2011.09-SP2 64-BIT (Feb 27 2012) linux ******               
 ******  
 $this uut was automatically generated by:

  ******  circuit name directory
 circuit number to circuit name directory
   number circuitname                     definition         multiplier
        0 main circuit
        1 xinput_0.                       inverter           1.00 
        2 xinput_1.                       inverter           1.00 
        3 xinverter00.                    inverter           1.00 
        4 xinverter10.                    inverter           1.00 
        5 xinverter01.                    inverter           1.00 
        6 xinverter11.                    inverter           1.00 
        7 xoutput_00.                     inverter           1.00 
        8 xoutput_10.                     inverter           1.00 
        9 xinput_0.xpfet.                 pfet               1.00 
       10 xinput_0.xnfet.                 nfet               1.00 
       11 xinput_1.xpfet.                 pfet               1.00 
       12 xinput_1.xnfet.                 nfet               1.00 
       13 xinverter00.xpfet.              pfet               1.00 
       14 xinverter00.xnfet.              nfet               1.00 
       15 xinverter10.xpfet.              pfet               1.00 
       16 xinverter10.xnfet.              nfet               1.00 
       17 xinverter01.xpfet.              pfet               1.00 
       18 xinverter01.xnfet.              nfet               1.00 
       19 xinverter11.xpfet.              pfet               1.00 
       20 xinverter11.xnfet.              nfet               1.00 
       21 xoutput_00.xpfet.               pfet               1.00 
       22 xoutput_00.xnfet.               nfet               1.00 
       23 xoutput_10.xpfet.               pfet               1.00 
       24 xoutput_10.xnfet.               nfet               1.00 
1****** HSPICE -- F-2011.09-SP2 64-BIT (Feb 27 2012) linux ******               
 ******  
 $this uut was automatically generated by:

  ******  mos   model parameters tnom=  25.000 temp=  25.000 *****
 Model Name: pfet 
 BSIM-MG BULK Model(Level72)
   VERSION = 105.03  
   DEVTYPE = -1 
   BULKMOD = 1  
   COREMOD = 0 
   GEOMOD = 1 
   RDSMOD = 1 
   IGCMOD = 1 
   IGBMOD = 1 
   GIDLMOD = 0 
   IIMOD = 0 
   NQSMOD = 0 
   SHMOD = 0 
   RGATEMOD = 0 
   RGEOMOD = 1 
   CGEOMOD = 2 
   CAPMOD = 0 
   LINT =  6e-10 m
   LL =      0 m^(LLN+1)
   LLN =      1 
   DLC =      0 m
   DLBIN =      0 
   LLC =      0 m^(LLN+1)
   EOT = 6.8e-10 m
   TOXP = 1.2e-09 m
   EOTBOX = 1.4e-07 m
   HFIN = 2.1e-08 m
   FECH =      1 
   DELTAW =      0 m
   FECHCV =      1 
   DELTAWCV =      0 m
   NBODY = 2.5e+22 m^-3
   NSD =  3e+26 m^-3
   PHIG =  4.751 eV
   EPSROX =    3.9 
   EPSRSUB =   11.9 
   EASUB =   4.05 eV
   NI0SUB = 1.1e+16 m^-3
   BG0SUB =   1.12 eV
   NC0SUB = 2.86e+25 m^-3
   NGATE =      0 m^-3
   CIT = 1.3e-05 F/m^2
   CDSC =  0.032 F/m^2
   CDSCD =  0.007 F/m^2
   CDSCDR =  0.007 
   DVT0 =   0.01 
   DVT1 =   0.69 
   PHIN =   0.05 V
   ETA0 =   0.93 
   ETA0R =   0.93 
   DSUB =    0.9 
   K1RSCE =      0 V^1/2
   LPE0 =  5e-09 m
   DVTSHIFT =      0 
   QMFACTOR =      0 
   QMTCENIV =      0 
   QMTCENCV =      0 
   AQMTCEN =      0 
   BQMTCEN = 1.2e-08 
   ETAQM =   0.54 
   QM0 = 0.001143 
   PQM =   0.66 
   QM0ACC =  0.001 
   PQMACC =   0.66 
   VSAT = 1.29e+05 
   AVSAT =      0 
   BVSAT =  1e-07 
   VSAT1 = 1.29e+05 
   AVSAT1 =      0 
   BVSAT1 =  1e-07 
   DELTAVSAT =      1 
   KSATIV =    0.8 
   MEXP =      3 
   AMEXP =      0 
   BMEXP =      1 
   PTWG =      0 
   APTWG =      0 
   BPTWG =  1e-07 
   AT = -0.00156 
   TMEXP =      0 
   PTWGT =  0.004 
   U0 = 0.0376 
   ETAMOB =      2 
   UP =      0 
   LPA =      1 
   UA =    0.3 
   AUA =      0 
   BUA =  1e-07 
   EU =    1.8 
   AEU =      0 
   BEU =  1e-07 
   UD =      0 
   AUD =      0 
   BUD =  5e-08 
   UCS =      0 
   UTE =      0 
   UTL = -0.0015 
   UA1 = 0.001032 
   UD1 =      0 
   UCSTE = -0.00478 
   RDSWMIN =      0 
   RDSW =    100 
   ARDSW =      0 
   BRDSW =  1e-07 
   RSWMIN =      0 
   RSW =      0 
   ARSW =      0 
   BRSW =  1e-07 
   RDWMIN =      0 
   RDW =      0 
   ARDW =      0 
   BRDW =  1e-07 
   PRWG =      0 
   WR =      1 
   PRT =  0.001 
   PDIBL1 =    1.3 
   PDIBL2 = 0.0002 
   DROUT =   1.06 
   PVAG =      1 
   PCLM =    0.2 
   APCLM =      0 
   BPCLM =  1e-07 
   PCLMG =      0 
   VASAT =    0.6 
   PCLMCV =  0.013 
   PCLMGCV =      0 
   VASATCV =    0.2 
   RGEXT =      0 ohm
   RGFIN =  0.001 ohm
   RSHS =      0 ohm
   RSHD =      0 ohm
   HEPI = 8.5e-09 m
   TSILI =  7e-09 m
   RHOC =  7e-13 ohm/m^2
   RHORSD =      1 ohm/m
   RHOEXT =      1 ohm/m
   CRATIO =    0.5 
   DELTAPRSD =      0 m
   SDTERM = 0 
   LSP = 2.8e-09 m
   LDG =  2e-09 m
   EPSRSP =    3.9 
   TGATE =  8e-09 m
   TMASK =      0 m
   ASILIEND =      0 m^2
   ARSDEND =      0 m^2
   PRSDEND =      0 m
   NSDE =  6e+25 m^-3
   RGEOA =      1 
   RGEOB =      0 m^-1
   RGEOC =      0 m^-1
   RGEOD =      0 m^-1
   RGEOE =      0 m^-1
   CGEOA =      1 
   CGEOB =      0 m^-1
   CGEOC =      0 m^-1
   CGEOD =      0 m^-1
   CGEOE =      1 
   AIGBINV = 0.0111 (Fs^2/g)^0.5m^-1
   BIGBINV =   0.03 (Fs^2/g)^0.5m^-1
   CIGBINV =  0.006 V^-1
   EIGBINV =    1.1 V
   NIGBINV =    1.2 
   AIGBACC = 0.0149 
   BIGBACC = 0.000949 
   CIGBACC =  0.075 
   NIGBACC =      3 
   AIGC = 0.0136 (Fs^2/g)^0.5m^-1
   BIGC = 0.00171 (Fs^2/g)^0.5m^-1V^-1
   CIGC =  0.075 V^-1
   NIGC =      1 
   DLCIGS =      0 m
   AIGS = 0.0136 (Fs^2/g)^0.5m^-1
   BIGS = 0.00171 (Fs^2/g)^0.5m^-1V^-1
   CIGS =  0.075 V^-1
   DLCIGD =      0 m
   AIGD = 0.0136 (Fs^2/g)^0.5m^-1
   BIGD = 0.00171 (Fs^2/g)^0.5m^-1V^-1
   CIGD =  0.075 V^-1
   POXEDGE =      1 
   AGIDL = 5.729e-12 ohm^-1
   BGIDL =  3e+08 V/m
   EGIDL =    0.1 V
   AGISL = 5.729e-12 ohm^-1
   BGISL =  3e+08 V/m
   EGISL =    0.1 V
   ALPHA0 =      0 mV^-1
   ALPHA1 =      0 V^-1
   BETA0 =     30 V^-1
   ALPHAII =      0 
   BETAII0 =      0 V^-1
   BETAII1 =      0 
   BETAII2 =    0.1 V
   ESATII =  1e+07 V/m
   LII =  5e-10 V/m
   SII0 =    0.5 V^-1
   SII1 =    0.1 
   SII2 =      0 V
   SIID =      0 V
   EOTACC = 6.8e-10 m
   DELVFBACC =      0 V
   CFS = 2.56e-11 F/m
   CFD = 2.65e-11 F/m
   COVS = 2.5e-11 F/m
   COVD = 2.5e-11 F/m
   CGSO =      0 F/m
   CGDO =      0 F/m
   CGSL =      0 F/m
   CGDL =      0 F/m
   CKAPPAS =    0.6 V
   CKAPPAD =    0.6 V
   CGBO =      0 F/m
   CGBL =      0 F/m
   CKAPPAB =    0.6 V
   CSDESW =      0 F/m
   CJS = 0.0005 F/m^2
   CJD = 0.0005 F/m^2
   CJSWS =  5e-10 F/m
   CJSWD =  5e-10 F/m
   CJSWGS =      0 F/m
   CJSWGD =      0 F/m
   PBS =      1 V
   PBD =      1 V
   PBSWS =      1 V
   PBSWD =      1 V
   PBSWGS =      1 V
   PBSWGD =      1 V
   MJS, =    0.5 
   MJD =    0.5 
   MJSWS =   0.33 
   MJSWD =   0.33 
   MJSWGS =   0.33 
   MJSWGD =   0.33 
   SJS =      0 
   SJD =      0 
   SJSWS =      0 
   SJSWD =      0 
   SJSWGS =      0 
   SJSWGD =      0 
   MJS2 =  0.125 
   MJD2 =  0.125 
   MJSWS2 =   0.33 
   MJSWD2 =   0.33 
   MJSWGS2 =   0.33 
   MJSWGD2 =   0.33 
   JSS = 0.0001 A/m^2
   JSD = 0.0001 A/m^2
   JSWS =      0 A/m
   JSWD =      0 A/m
   JSWGS =      0 A/m
   JSWGD =      0 A/m
   NJS =      1 
   NJD =      1 
   IJTHSFWD =    0.1 A
   IJTHDFWD =    0.1 A
   IJTHSREV =    0.1 A
   IJTHDREV =    0.1 A
   BVS =     10 V
   BVD =     10 V
   XJBVS =      1 
   XJBVD =      1 
   JTSS =      0 A/m^2
   JTSD =      0 A/m^2
   JTSSWS =      0 A/m
   JTSSWD =      0 A/m
   JTSSWGS =      0 A/m
   JTSSWGD =      0 A/m
   JTWEFF =      0 m
   NJTS =     20 
   NJTSD =     20 
   NJTSSW =     20 
   NJTSSWD =     20 
   NJTSSWG =     20 
   NJTSSWGD =     20 
   VTSS =     10 V
   VTSD =     10 V
   VTSSWS =     10 V
   VTSSWD =     10 V
   VTSSWGS =     10 V
   VTSSWGD =     10 V
   LINTIGEN =      0 m
   NTGEN =      1 
   AIGEN =      0 m^-3V^-1
   BIGEN =      0 m^-3V^-3
   XRCRG1 =     12 
   XRCRG2 =      1 
   NSEG = 5 
   EF =      1 
   EM = 4.1e+07 V/m
   NOIA = 6.25e+39 eV^-1s^1-EFm^-3
   NOIB = 3.125e+24 eV^-1s^1-EFm^-1
   NOIC = 8.75e+07 eV^-1s^1-EFm
   NTNOI =      1 
   TNOM =  300.1 K
   TBGASUB = 0.000702 eV/K
   TBGBSUB =   1108 K
   KT1 =      0 V
   KT1L =      0 Vm
   IIT =   -0.5 
   TII =      0 
   TGIDL = -0.0003 K^-1
   IGT =    2.5 
   TCJ =      0 K^-1
   TCJSW =      0 K^-1
   TCJSWG =      0 K^-1
   TPB =      0 K^-1
   TPBSW =      0 K^-1
   TPBSWG =      0 K^-1
   XTIS =      3 
   XTID =      3 
   XTSS =   0.02 
   XTSD =   0.02 
   XTSSWS =   0.02 
   XTSSWD =   0.02 
   XTSSWGS =   0.02 
   XTSSWGD =   0.02 
   TNJTS =      0 
   TNJTSD =      0 
   TNJTSSW =      0 
   TNJTSSWD =      0 
   TNJTSSWG =      0 
   TNJTSSWGD =      0 
   RTH0 =   0.01 ohm
   CTH0 =  1e-05 F
   WTH0 =      0 m
   LNBODY =      0 
   NNBODY =      0 
   PNBODY =      0 
   LPHIG =      0 
   NPHIG =      0 
   PPHIG =      0 
   LNGATE =      0 
   NNGATE =      0 
   PNGATE =      0 
   LCIT =      0 
   NCIT =      0 
   PCIT =      0 
   LCDSC =      0 
   NCDSC =      0 
   PCDSC =      0 
   LCDSCD =      0 
   NCDSCD =      0 
   PCDSCD =      0 
   LCDSCDR =      0 
   NCDSCDR =      0 
   PCDSCDR =      0 
   LDVT0 =      0 
   NDVT0 =      0 
   PDVT0 =      0 
   LDVT1 =      0 
   NDVT1 =      0 
   PDVT1 =      0 
   LPHIN =      0 
   NPHIN =      0 
   PPHIN =      0 
   LETA0 =      0 
   NETA0 =      0 
   PETA0 =      0 
   LETA0R =      0 
   NETA0R =      0 
   PETA0R =      0 
   LDSUB =      0 
   NDSUB =      0 
   PDSUB =      0 
   LK1RSCE =      0 
   NK1RSCE =      0 
   PK1RSCE =      0 
   LLPE0 =      0 
   NLPE0 =      0 
   PLPE0 =      0 
   LQMFACTOR =      0 
   NQMFACTOR =      0 
   PQMFACTOR =      0 
   LQMTCENIV =      0 
   NQMTCENIV =      0 
   PQMTCENIV =      0 
   LQMTCENCV =      0 
   NQMTCENCV =      0 
   PQMTCENCV =      0 
   LVSAT =      0 
   NVSAT =      0 
   PVSAT =      0 
   LKSATIV =      0 
   NKSATIV =      0 
   PKSATIV =      0 
   LMEXP =      0 
   NMEXP =      0 
   PMEXP =      0 
   LPTWG =      0 
   NPTWG =      0 
   PPTWG =      0 
   LTHETASAT =      0 
   NTHETASAT =      0 
   PTHETASAT =      0 
   LU0 =      0 
   NU0 =      0 
   PU0 =      0 
   LUP =      0 
   NUP =      0 
   PUP =      0 
   LUA =      0 
   NUA =      0 
   PUA =      0 
   LEU =      0 
   NEU =      0 
   PEU =      0 
   LUD =      0 
   NUD =      0 
   PUD =      0 
   LUCS =      0 
   NUCS =      0 
   PUCS =      0 
   LPCLM =      0 
   NPCLM =      0 
   PPCLM =      0 
   LPCLMCV =      0 
   NPCLMCV =      0 
   PPCLMCV =      0 
   LRDSW =      0 
   NRDSW =      0 
   PRDSW =      0 
   LRSW =      0 
   NRSW =      0 
   PRSW =      0 
   LRDW =      0 
   NRDW =      0 
   PRDW =      0 
   LPRWG =      0 
   NPRWG =      0 
   PPRWG =      0 
   LWR =      0 
   NWR =      0 
   PWR =      0 
   LPDIBL1 =      0 
   NPDIBL1 =      0 
   PPDIBL1 =      0 
   LPDIBL2 =      0 
   NPDIBL2 =      0 
   PPDIBL2 =      0 
   LDROUT =      0 
   NDROUT =      0 
   PDROUT =      0 
   LPVAG =      0 
   NPVAG =      0 
   PPVAG =      0 
   LAIGBINV =      0 
   NAIGBINV =      0 
   PAIGBINV =      0 
   LBIGBINV =      0 
   NBIGBINV =      0 
   PBIGBINV =      0 
   LCIGBINV =      0 
   NCIGBINV =      0 
   PCIGBINV =      0 
   LEIGBINV =      0 
   NEIGBINV =      0 
   PEIGBINV =      0 
   LNIGBINV =      0 
   NNIGBINV =      0 
   PNIGBINV =      0 
   LAIGC =      0 
   NAIGC =      0 
   PAIGC =      0 
   LBIGC =      0 
   NBIGC =      0 
   PBIGC =      0 
   LCIGC =      0 
   NCIGC =      0 
   PCIGC =      0 
   LNIGC =      0 
   NNIGC =      0 
   PNIGC =      0 
   LAIGS =      0 
   NAIGS =      0 
   PAIGS =      0 
   LBIGS =      0 
   NBIGS =      0 
   PBIGS =      0 
   LCIGS =      0 
   NCIGS =      0 
   PCIGS =      0 
   LAIGD =      0 
   NAIGD =      0 
   PAIGD =      0 
   LBIGD =      0 
   NBIGD =      0 
   PBIGD =      0 
   LCIGD =      0 
   NCIGD =      0 
   PCIGD =      0 
   LPOXEDGE =      0 
   NPOXEDGE =      0 
   PPOXEDGE =      0 
   LAGIDL =      0 
   NAGIDL =      0 
   PAGIDL =      0 
   LBGIDL =      0 
   NBGIDL =      0 
   PBGIDL =      0 
   LEGIDL =      0 
   NEGIDL =      0 
   PEGIDL =      0 
   LAGISL =      0 
   NAGISL =      0 
   PAGISL =      0 
   LBGISL =      0 
   NBGISL =      0 
   PBGISL =      0 
   LEGISL =      0 
   NEGISL =      0 
   PEGISL =      0 
   LALPHA0 =      0 
   NALPHA0 =      0 
   PALPHA0 =      0 
   LALPHA1 =      0 
   NALPHA1 =      0 
   PALPHA1 =      0 
   LBETA0 =      0 
   NBETA0 =      0 
   PBETA0 =      0 
   LALPHAII =      0 
   NALPHAII =      0 
   PALPHAII =      0 
   LBETAII0 =      0 
   NBETAII0 =      0 
   PBETAII0 =      0 
   LBETAII1 =      0 
   NBETAII1 =      0 
   PBETAII1 =      0 
   LBETAII2 =      0 
   NBETAII2 =      0 
   PBETAII2 =      0 
   LESATII =      0 
   NESATII =      0 
   PESATII =      0 
   LLII =      0 
   NLII =      0 
   PLII =      0 
   LSII0 =      0 
   NSII0 =      0 
   PSII0 =      0 
   LSII1 =      0 
   NSII1 =      0 
   PSII1 =      0 
   LSII2 =      0 
   NSII2 =      0 
   PSII2 =      0 
   LSIID =      0 
   NSIID =      0 
   PSIID =      0 
   LCFS =      0 
   NCFS =      0 
   PCFS =      0 
   LCFD =      0 
   NCFD =      0 
   PCFD =      0 
   LCOVS =      0 
   NCOVS =      0 
   PCOVS =      0 
   LCOVD =      0 
   NCOVD =      0 
   PCOVD =      0 
   LCGSL =      0 
   NCGSL =      0 
   PCGSL =      0 
   LCGDL =      0 
   NCGDL =      0 
   PCGDL =      0 
   LCKAPPAS =      0 
   NCKAPPAS =      0 
   PCKAPPAS =      0 
   LCKAPPAD =      0 
   NCKAPPAD =      0 
   PCKAPPAD =      0 
   LCGBL =      0 
   NCGBL =      0 
   PCGBL =      0 
   LCKAPPAB =      0 
   NCKAPPAB =      0 
   PCKAPPAB =      0 
   LNTGEN =      0 
   NNTGEN =      0 
   PNTGEN =      0 
   LAIGEN =      0 
   NAIGEN =      0 
   PAIGEN =      0 
   LBIGEN =      0 
   NBIGEN =      0 
   PBIGEN =      0 
   LXRCRG1 =      0 
   NXRCRG1 =      0 
   PXRCRG1 =      0 
   LXRCRG2 =      0 
   NXRCRG2 =      0 
   PXRCRG2 =      0 
   LINTNOI =      0 
   NINTNOI =      0 
   PINTNOI =      0 
   LUTE =      0 
   NUTE =      0 
   PUTE =      0 
   LUTL =      0 
   NUTL =      0 
   PUTL =      0 
   LUA1 =      0 
   NUA1 =      0 
   PUA1 =      0 
   LUD1 =      0 
   NUD1 =      0 
   PUD1 =      0 
   LUCSTE =      0 
   NUCSTE =      0 
   PUCSTE =      0 
   LPTWGT =      0 
   NPTWGT =      0 
   PPTWGT =      0 
   LAT =      0 
   NAT =      0 
   PAT =      0 
   LSTTHETASAT =      0 
   NSTTHETASAT =      0 
   PSTTHETASAT =      0 
   LPRT =      0 
   NPRT =      0 
   PPRT =      0 
   LIIT =      0 
   NIIT =      0 
   PIIT =      0 
   LTII =      0 
   NTII =      0 
   PTII =      0 
   LTGIDL =      0 
   NTGIDL =      0 
   PTGIDL =      0 
   LIGT =      0 
   NIGT =      0 
   PIGT =      0 
   L = 1.4e-08 m
   D =  4e-08 m
   TFIN =  8e-09 m
   FPITCH = 2.8e-08 m
   NF = 1 
   NFIN = 1 
   NGCON = 1 
   ASEO =      0 m^2
   ADEO =      0 m^2
   PSEO =      0 m
   PDEO =      0 m
   ASEJ =      0 m^2
   ADEJ =      0 m^2
   PSEJ =      0 m
   PDEJ =      0 m
   CGSP =      0 F
   CGDP =      0 F
   CDSP =      0 F
   NRS =      0 
   NRD =      0 
   LRSD = 1.4e-08 m
   XL =      0 m
   DELVTRAND =      0 
   U0MULT =      1 
   IDS0MULT =      1 
   Lmin =  1e-08 m
   Lmax =  3e-08 m
   NFINmin = 0 
   NFINmax = 1 
   LVSAT1 =      0 
   NVSAT1 =      0 
   PVSAT1 =      0 
   LETAMOB =      0 
   NETAMOB =      0 
   PETAMOB =      0 
   LPCLMG =      0 
   NPCLMG =      0 
   PPCLMG =      0 
   LVASAT =      0 
   NVASAT =      0 
   PVASAT =      0 
   LAIGBACC =      0 
   NAIGBACC =      0 
   PAIGBACC =      0 
   LBIGBACC =      0 
   NBIGBACC =      0 
   PBIGBACC =      0 
   LCIGBACC =      0 
   NCIGBACC =      0 
   PCIGBACC =      0 
   LNIGBACC =      0 
   NNIGBACC =      0 
   PNIGBACC =      0 
 Model Name: nfet 
 BSIM-MG BULK Model(Level72)
   VERSION = 105.03  
   DEVTYPE = 1 
   BULKMOD = 1  
   COREMOD = 0 
   GEOMOD = 1 
   RDSMOD = 1 
   IGCMOD = 1 
   IGBMOD = 1 
   GIDLMOD = 0 
   IIMOD = 0 
   NQSMOD = 0 
   SHMOD = 0 
   RGATEMOD = 0 
   RGEOMOD = 1 
   CGEOMOD = 2 
   CAPMOD = 0 
   LINT =  6e-10 m
   LL =      0 m^(LLN+1)
   LLN =      1 
   DLC =      0 m
   DLBIN =      0 
   LLC =      0 m^(LLN+1)
   EOT = 6.8e-10 m
   TOXP = 1.2e-09 m
   EOTBOX = 1.4e-07 m
   HFIN = 2.1e-08 m
   FECH =      1 
   DELTAW =      0 m
   FECHCV =      1 
   DELTAWCV =      0 m
   NBODY = 2.5e+22 m^-3
   NSD =  3e+26 m^-3
   PHIG =  4.421 eV
   EPSROX =    3.9 
   EPSRSUB =   11.9 
   EASUB =   4.05 eV
   NI0SUB = 1.1e+16 m^-3
   BG0SUB =   1.12 eV
   NC0SUB = 2.86e+25 m^-3
   NGATE =      0 m^-3
   CIT = 1.3e-05 F/m^2
   CDSC =  0.032 F/m^2
   CDSCD =  0.007 F/m^2
   CDSCDR =  0.007 
   DVT0 =   0.01 
   DVT1 =   0.69 
   PHIN =   0.05 V
   ETA0 = 0.6778 
   ETA0R = 0.6778 
   DSUB =    0.9 
   K1RSCE =      0 V^1/2
   LPE0 =  5e-09 m
   DVTSHIFT =      0 
   QMFACTOR =      0 
   QMTCENIV =      0 
   QMTCENCV =      0 
   AQMTCEN =      0 
   BQMTCEN = 1.2e-08 
   ETAQM =   0.54 
   QM0 = 0.001143 
   PQM =   0.66 
   QM0ACC =  0.001 
   PQMACC =   0.66 
   VSAT = 1.32e+05 
   AVSAT =      0 
   BVSAT =  1e-07 
   VSAT1 = 1.32e+05 
   AVSAT1 =      0 
   BVSAT1 =  1e-07 
   DELTAVSAT =      1 
   KSATIV =    0.8 
   MEXP =      3 
   AMEXP =      0 
   BMEXP =      1 
   PTWG =      0 
   APTWG =      0 
   BPTWG =  1e-07 
   AT = -0.00156 
   TMEXP =      0 
   PTWGT =  0.004 
   U0 = 0.0568 
   ETAMOB =      2 
   UP =      0 
   LPA =      1 
   UA =    0.3 
   AUA =      0 
   BUA =  1e-07 
   EU =    1.8 
   AEU =      0 
   BEU =  1e-07 
   UD =      0 
   AUD =      0 
   BUD =  5e-08 
   UCS =      0 
   UTE =      0 
   UTL = -0.0015 
   UA1 = 0.001032 
   UD1 =      0 
   UCSTE = -0.00478 
   RDSWMIN =      0 
   RDSW =    100 
   ARDSW =      0 
   BRDSW =  1e-07 
   RSWMIN =      0 
   RSW =      0 
   ARSW =      0 
   BRSW =  1e-07 
   RDWMIN =      0 
   RDW =      0 
   ARDW =      0 
   BRDW =  1e-07 
   PRWG =      0 
   WR =      1 
   PRT =  0.001 
   PDIBL1 =    1.3 
   PDIBL2 = 0.0002 
   DROUT =   1.06 
   PVAG =      1 
   PCLM =    0.2 
   APCLM =      0 
   BPCLM =  1e-07 
   PCLMG =      0 
   VASAT =    0.6 
   PCLMCV =  0.013 
   PCLMGCV =      0 
   VASATCV =    0.2 
   RGEXT =      0 ohm
   RGFIN =  0.001 ohm
   RSHS =      0 ohm
   RSHD =      0 ohm
   HEPI = 8.5e-09 m
   TSILI =  7e-09 m
   RHOC =  6e-13 ohm/m^2
   RHORSD =      1 ohm/m
   RHOEXT =      1 ohm/m
   CRATIO =    0.5 
   DELTAPRSD =      0 m
   SDTERM = 0 
   LSP = 2.8e-09 m
   LDG =  2e-09 m
   EPSRSP =    3.9 
   TGATE =  8e-09 m
   TMASK =      0 m
   ASILIEND =      0 m^2
   ARSDEND =      0 m^2
   PRSDEND =      0 m
   NSDE =  6e+25 m^-3
   RGEOA =      1 
   RGEOB =      0 m^-1
   RGEOC =      0 m^-1
   RGEOD =      0 m^-1
   RGEOE =      0 m^-1
   CGEOA =      1 
   CGEOB =      0 m^-1
   CGEOC =      0 m^-1
   CGEOD =      0 m^-1
   CGEOE =      1 
   AIGBINV = 0.0111 (Fs^2/g)^0.5m^-1
   BIGBINV =   0.03 (Fs^2/g)^0.5m^-1
   CIGBINV =  0.006 V^-1
   EIGBINV =    1.1 V
   NIGBINV =    1.2 
   AIGBACC = 0.0149 
   BIGBACC = 0.000949 
   CIGBACC =  0.075 
   NIGBACC =      3 
   AIGC = 0.0136 (Fs^2/g)^0.5m^-1
   BIGC = 0.00171 (Fs^2/g)^0.5m^-1V^-1
   CIGC =  0.075 V^-1
   NIGC =      1 
   DLCIGS =      0 m
   AIGS = 0.0136 (Fs^2/g)^0.5m^-1
   BIGS = 0.00171 (Fs^2/g)^0.5m^-1V^-1
   CIGS =  0.075 V^-1
   DLCIGD =      0 m
   AIGD = 0.0136 (Fs^2/g)^0.5m^-1
   BIGD = 0.00171 (Fs^2/g)^0.5m^-1V^-1
   CIGD =  0.075 V^-1
   POXEDGE =      1 
   AGIDL = 5.729e-12 ohm^-1
   BGIDL =  3e+08 V/m
   EGIDL =    0.1 V
   AGISL = 5.729e-12 ohm^-1
   BGISL =  3e+08 V/m
   EGISL =    0.1 V
   ALPHA0 =      0 mV^-1
   ALPHA1 =      0 V^-1
   BETA0 =     30 V^-1
   ALPHAII =      0 
   BETAII0 =      0 V^-1
   BETAII1 =      0 
   BETAII2 =    0.1 V
   ESATII =  1e+07 V/m
   LII =  5e-10 V/m
   SII0 =    0.5 V^-1
   SII1 =    0.1 
   SII2 =      0 V
   SIID =      0 V
   EOTACC = 6.8e-10 m
   DELVFBACC =      0 V
   CFS = 2.56e-11 F/m
   CFD = 2.65e-11 F/m
   COVS = 2.5e-11 F/m
   COVD = 2.5e-11 F/m
   CGSO =      0 F/m
   CGDO =      0 F/m
   CGSL =      0 F/m
   CGDL =      0 F/m
   CKAPPAS =    0.6 V
   CKAPPAD =    0.6 V
   CGBO =      0 F/m
   CGBL =      0 F/m
   CKAPPAB =    0.6 V
   CSDESW =      0 F/m
   CJS = 0.0005 F/m^2
   CJD = 0.0005 F/m^2
   CJSWS =  5e-10 F/m
   CJSWD =  5e-10 F/m
   CJSWGS =      0 F/m
   CJSWGD =      0 F/m
   PBS =      1 V
   PBD =      1 V
   PBSWS =      1 V
   PBSWD =      1 V
   PBSWGS =      1 V
   PBSWGD =      1 V
   MJS, =    0.5 
   MJD =    0.5 
   MJSWS =   0.33 
   MJSWD =   0.33 
   MJSWGS =   0.33 
   MJSWGD =   0.33 
   SJS =      0 
   SJD =      0 
   SJSWS =      0 
   SJSWD =      0 
   SJSWGS =      0 
   SJSWGD =      0 
   MJS2 =  0.125 
   MJD2 =  0.125 
   MJSWS2 =   0.33 
   MJSWD2 =   0.33 
   MJSWGS2 =   0.33 
   MJSWGD2 =   0.33 
   JSS = 0.0001 A/m^2
   JSD = 0.0001 A/m^2
   JSWS =      0 A/m
   JSWD =      0 A/m
   JSWGS =      0 A/m
   JSWGD =      0 A/m
   NJS =      1 
   NJD =      1 
   IJTHSFWD =    0.1 A
   IJTHDFWD =    0.1 A
   IJTHSREV =    0.1 A
   IJTHDREV =    0.1 A
   BVS =     10 V
   BVD =     10 V
   XJBVS =      1 
   XJBVD =      1 
   JTSS =      0 A/m^2
   JTSD =      0 A/m^2
   JTSSWS =      0 A/m
   JTSSWD =      0 A/m
   JTSSWGS =      0 A/m
   JTSSWGD =      0 A/m
   JTWEFF =      0 m
   NJTS =     20 
   NJTSD =     20 
   NJTSSW =     20 
   NJTSSWD =     20 
   NJTSSWG =     20 
   NJTSSWGD =     20 
   VTSS =     10 V
   VTSD =     10 V
   VTSSWS =     10 V
   VTSSWD =     10 V
   VTSSWGS =     10 V
   VTSSWGD =     10 V
   LINTIGEN =      0 m
   NTGEN =      1 
   AIGEN =      0 m^-3V^-1
   BIGEN =      0 m^-3V^-3
   XRCRG1 =     12 
   XRCRG2 =      1 
   NSEG = 5 
   EF =      1 
   EM = 4.1e+07 V/m
   NOIA = 6.25e+39 eV^-1s^1-EFm^-3
   NOIB = 3.125e+24 eV^-1s^1-EFm^-1
   NOIC = 8.75e+07 eV^-1s^1-EFm
   NTNOI =      1 
   TNOM =  300.1 K
   TBGASUB = 0.000702 eV/K
   TBGBSUB =   1108 K
   KT1 =      0 V
   KT1L =      0 Vm
   IIT =   -0.5 
   TII =      0 
   TGIDL = -0.0003 K^-1
   IGT =    2.5 
   TCJ =      0 K^-1
   TCJSW =      0 K^-1
   TCJSWG =      0 K^-1
   TPB =      0 K^-1
   TPBSW =      0 K^-1
   TPBSWG =      0 K^-1
   XTIS =      3 
   XTID =      3 
   XTSS =   0.02 
   XTSD =   0.02 
   XTSSWS =   0.02 
   XTSSWD =   0.02 
   XTSSWGS =   0.02 
   XTSSWGD =   0.02 
   TNJTS =      0 
   TNJTSD =      0 
   TNJTSSW =      0 
   TNJTSSWD =      0 
   TNJTSSWG =      0 
   TNJTSSWGD =      0 
   RTH0 =   0.01 ohm
   CTH0 =  1e-05 F
   WTH0 =      0 m
   LNBODY =      0 
   NNBODY =      0 
   PNBODY =      0 
   LPHIG =      0 
   NPHIG =      0 
   PPHIG =      0 
   LNGATE =      0 
   NNGATE =      0 
   PNGATE =      0 
   LCIT =      0 
   NCIT =      0 
   PCIT =      0 
   LCDSC =      0 
   NCDSC =      0 
   PCDSC =      0 
   LCDSCD =      0 
   NCDSCD =      0 
   PCDSCD =      0 
   LCDSCDR =      0 
   NCDSCDR =      0 
   PCDSCDR =      0 
   LDVT0 =      0 
   NDVT0 =      0 
   PDVT0 =      0 
   LDVT1 =      0 
   NDVT1 =      0 
   PDVT1 =      0 
   LPHIN =      0 
   NPHIN =      0 
   PPHIN =      0 
   LETA0 =      0 
   NETA0 =      0 
   PETA0 =      0 
   LETA0R =      0 
   NETA0R =      0 
   PETA0R =      0 
   LDSUB =      0 
   NDSUB =      0 
   PDSUB =      0 
   LK1RSCE =      0 
   NK1RSCE =      0 
   PK1RSCE =      0 
   LLPE0 =      0 
   NLPE0 =      0 
   PLPE0 =      0 
   LQMFACTOR =      0 
   NQMFACTOR =      0 
   PQMFACTOR =      0 
   LQMTCENIV =      0 
   NQMTCENIV =      0 
   PQMTCENIV =      0 
   LQMTCENCV =      0 
   NQMTCENCV =      0 
   PQMTCENCV =      0 
   LVSAT =      0 
   NVSAT =      0 
   PVSAT =      0 
   LKSATIV =      0 
   NKSATIV =      0 
   PKSATIV =      0 
   LMEXP =      0 
   NMEXP =      0 
   PMEXP =      0 
   LPTWG =      0 
   NPTWG =      0 
   PPTWG =      0 
   LTHETASAT =      0 
   NTHETASAT =      0 
   PTHETASAT =      0 
   LU0 =      0 
   NU0 =      0 
   PU0 =      0 
   LUP =      0 
   NUP =      0 
   PUP =      0 
   LUA =      0 
   NUA =      0 
   PUA =      0 
   LEU =      0 
   NEU =      0 
   PEU =      0 
   LUD =      0 
   NUD =      0 
   PUD =      0 
   LUCS =      0 
   NUCS =      0 
   PUCS =      0 
   LPCLM =      0 
   NPCLM =      0 
   PPCLM =      0 
   LPCLMCV =      0 
   NPCLMCV =      0 
   PPCLMCV =      0 
   LRDSW =      0 
   NRDSW =      0 
   PRDSW =      0 
   LRSW =      0 
   NRSW =      0 
   PRSW =      0 
   LRDW =      0 
   NRDW =      0 
   PRDW =      0 
   LPRWG =      0 
   NPRWG =      0 
   PPRWG =      0 
   LWR =      0 
   NWR =      0 
   PWR =      0 
   LPDIBL1 =      0 
   NPDIBL1 =      0 
   PPDIBL1 =      0 
   LPDIBL2 =      0 
   NPDIBL2 =      0 
   PPDIBL2 =      0 
   LDROUT =      0 
   NDROUT =      0 
   PDROUT =      0 
   LPVAG =      0 
   NPVAG =      0 
   PPVAG =      0 
   LAIGBINV =      0 
   NAIGBINV =      0 
   PAIGBINV =      0 
   LBIGBINV =      0 
   NBIGBINV =      0 
   PBIGBINV =      0 
   LCIGBINV =      0 
   NCIGBINV =      0 
   PCIGBINV =      0 
   LEIGBINV =      0 
   NEIGBINV =      0 
   PEIGBINV =      0 
   LNIGBINV =      0 
   NNIGBINV =      0 
   PNIGBINV =      0 
   LAIGC =      0 
   NAIGC =      0 
   PAIGC =      0 
   LBIGC =      0 
   NBIGC =      0 
   PBIGC =      0 
   LCIGC =      0 
   NCIGC =      0 
   PCIGC =      0 
   LNIGC =      0 
   NNIGC =      0 
   PNIGC =      0 
   LAIGS =      0 
   NAIGS =      0 
   PAIGS =      0 
   LBIGS =      0 
   NBIGS =      0 
   PBIGS =      0 
   LCIGS =      0 
   NCIGS =      0 
   PCIGS =      0 
   LAIGD =      0 
   NAIGD =      0 
   PAIGD =      0 
   LBIGD =      0 
   NBIGD =      0 
   PBIGD =      0 
   LCIGD =      0 
   NCIGD =      0 
   PCIGD =      0 
   LPOXEDGE =      0 
   NPOXEDGE =      0 
   PPOXEDGE =      0 
   LAGIDL =      0 
   NAGIDL =      0 
   PAGIDL =      0 
   LBGIDL =      0 
   NBGIDL =      0 
   PBGIDL =      0 
   LEGIDL =      0 
   NEGIDL =      0 
   PEGIDL =      0 
   LAGISL =      0 
   NAGISL =      0 
   PAGISL =      0 
   LBGISL =      0 
   NBGISL =      0 
   PBGISL =      0 
   LEGISL =      0 
   NEGISL =      0 
   PEGISL =      0 
   LALPHA0 =      0 
   NALPHA0 =      0 
   PALPHA0 =      0 
   LALPHA1 =      0 
   NALPHA1 =      0 
   PALPHA1 =      0 
   LBETA0 =      0 
   NBETA0 =      0 
   PBETA0 =      0 
   LALPHAII =      0 
   NALPHAII =      0 
   PALPHAII =      0 
   LBETAII0 =      0 
   NBETAII0 =      0 
   PBETAII0 =      0 
   LBETAII1 =      0 
   NBETAII1 =      0 
   PBETAII1 =      0 
   LBETAII2 =      0 
   NBETAII2 =      0 
   PBETAII2 =      0 
   LESATII =      0 
   NESATII =      0 
   PESATII =      0 
   LLII =      0 
   NLII =      0 
   PLII =      0 
   LSII0 =      0 
   NSII0 =      0 
   PSII0 =      0 
   LSII1 =      0 
   NSII1 =      0 
   PSII1 =      0 
   LSII2 =      0 
   NSII2 =      0 
   PSII2 =      0 
   LSIID =      0 
   NSIID =      0 
   PSIID =      0 
   LCFS =      0 
   NCFS =      0 
   PCFS =      0 
   LCFD =      0 
   NCFD =      0 
   PCFD =      0 
   LCOVS =      0 
   NCOVS =      0 
   PCOVS =      0 
   LCOVD =      0 
   NCOVD =      0 
   PCOVD =      0 
   LCGSL =      0 
   NCGSL =      0 
   PCGSL =      0 
   LCGDL =      0 
   NCGDL =      0 
   PCGDL =      0 
   LCKAPPAS =      0 
   NCKAPPAS =      0 
   PCKAPPAS =      0 
   LCKAPPAD =      0 
   NCKAPPAD =      0 
   PCKAPPAD =      0 
   LCGBL =      0 
   NCGBL =      0 
   PCGBL =      0 
   LCKAPPAB =      0 
   NCKAPPAB =      0 
   PCKAPPAB =      0 
   LNTGEN =      0 
   NNTGEN =      0 
   PNTGEN =      0 
   LAIGEN =      0 
   NAIGEN =      0 
   PAIGEN =      0 
   LBIGEN =      0 
   NBIGEN =      0 
   PBIGEN =      0 
   LXRCRG1 =      0 
   NXRCRG1 =      0 
   PXRCRG1 =      0 
   LXRCRG2 =      0 
   NXRCRG2 =      0 
   PXRCRG2 =      0 
   LINTNOI =      0 
   NINTNOI =      0 
   PINTNOI =      0 
   LUTE =      0 
   NUTE =      0 
   PUTE =      0 
   LUTL =      0 
   NUTL =      0 
   PUTL =      0 
   LUA1 =      0 
   NUA1 =      0 
   PUA1 =      0 
   LUD1 =      0 
   NUD1 =      0 
   PUD1 =      0 
   LUCSTE =      0 
   NUCSTE =      0 
   PUCSTE =      0 
   LPTWGT =      0 
   NPTWGT =      0 
   PPTWGT =      0 
   LAT =      0 
   NAT =      0 
   PAT =      0 
   LSTTHETASAT =      0 
   NSTTHETASAT =      0 
   PSTTHETASAT =      0 
   LPRT =      0 
   NPRT =      0 
   PPRT =      0 
   LIIT =      0 
   NIIT =      0 
   PIIT =      0 
   LTII =      0 
   NTII =      0 
   PTII =      0 
   LTGIDL =      0 
   NTGIDL =      0 
   PTGIDL =      0 
   LIGT =      0 
   NIGT =      0 
   PIGT =      0 
   L = 1.4e-08 m
   D =  4e-08 m
   TFIN =  8e-09 m
   FPITCH = 2.8e-08 m
   NF = 1 
   NFIN = 1 
   NGCON = 1 
   ASEO =      0 m^2
   ADEO =      0 m^2
   PSEO =      0 m
   PDEO =      0 m
   ASEJ =      0 m^2
   ADEJ =      0 m^2
   PSEJ =      0 m
   PDEJ =      0 m
   CGSP =      0 F
   CGDP =      0 F
   CDSP =      0 F
   NRS =      0 
   NRD =      0 
   LRSD = 1.4e-08 m
   XL =      0 m
   DELVTRAND =      0 
   U0MULT =      1 
   IDS0MULT =      1 
   Lmin =  1e-08 m
   Lmax =  3e-08 m
   NFINmin = 0 
   NFINmax = 1 
   LVSAT1 =      0 
   NVSAT1 =      0 
   PVSAT1 =      0 
   LETAMOB =      0 
   NETAMOB =      0 
   PETAMOB =      0 
   LPCLMG =      0 
   NPCLMG =      0 
   PPCLMG =      0 
   LVASAT =      0 
   NVASAT =      0 
   PVASAT =      0 
   LAIGBACC =      0 
   NAIGBACC =      0 
   PAIGBACC =      0 
   LBIGBACC =      0 
   NBIGBACC =      0 
   PBIGBACC =      0 
   LCIGBACC =      0 
   NCIGBACC =      0 
   PCIGBACC =      0 
   LNIGBACC =      0 
   NNIGBACC =      0 
   PNIGBACC =      0 
  **info** (ptm10hp.sp:8) DC voltage reset to initial transient source value              in source        0:vin_0               new dc=  0.7500D+00
  
 **warning**  No DC path to ground from node        0:outin_30         defined in subckt 0               ; Connected by HSPICE with gdcpath


      
 **info** set option symb=1 internally to help for convergence.
 *****************************************************************
 ******  option summary
 ******
 runlvl  = 3         bypass  = 2         
  Opening plot unit= 15
 file=ptm10hp.pa0                                                              

1****** HSPICE -- F-2011.09-SP2 64-BIT (Feb 27 2012) linux ******               
 ******  
 $this uut was automatically generated by:

  ******  operating point information tnom=  25.000 temp=  25.000 *****
 ***** operating point status is voltage   simulation time is     0.     
     node    =voltage       node    =voltage       node    =voltage

 + 0:inb_0   = 750.0000m  0:inb_1   = 750.0000m  0:outb_00 = 746.4027m
 + 0:outb_10 = 746.4027m  0:outin_00=   2.8356m  0:outin_01=   2.8356m
 + 0:outin_10= 747.6267m  0:outin_11= 747.6267m  0:outin_20=   2.9753m
 + 0:outin_21=   2.9753m  0:outin_30=  22.9185m  0:outin_31=  22.9185m
 + 0:vdd     = 750.0000m

 ******  
 $this uut was automatically generated by:

  ******  transient analysis tnom=  25.000 temp=  25.000 *****
 inv_avg_power00= 693.0375n  from=   0.          to=   4.0000n
 peakpower00=  20.5160u    at=   2.0288n
             from=   0.         to=   4.0000n
 inv_avg_power10= 591.0219n  from=   0.          to=   4.0000n
 peakpower10=  18.4994u    at=   2.0288n
             from=   0.         to=   4.0000n
 inv_avg_power01=   4.3853u  from=   0.          to=   4.0000n
 peakpower01=   1.4628m    at=   2.0872n
             from=   0.         to=   4.0000n
 inv_avg_power11= 560.4540n  from=   0.          to=   4.0000n
 peakpower11=  18.8480u    at=   2.0793n
             from=   0.         to=   4.0000n
 source_power=  10.3419u  from=   0.          to=   4.0000n
 trf_delay_001=   2.2436p  targ=  30.7138p   trig=  28.4702p
 tfr_delay_001=   1.8980p  targ=   1.0793n   trig=   1.0774n
 trf_delay_002=   2.2426p  targ=   2.0306n   trig=   2.0284n
 tfr_delay_002=   2.4874p  targ=   3.0801n   trig=   3.0776n
 trf_delay_101=-234.2795f  targ=   1.0791n   trig=   1.0793n
 tfr_delay_101= 267.7366f  targ=  30.9815p   trig=  30.7138p
 trf_delay_102= 716.5814f  targ=   3.0808n   trig=   3.0801n
 tfr_delay_102=   1.0843p  targ=   2.0317n   trig=   2.0306n
 trf_delay_011=   2.2436p  targ=  30.7138p   trig=  28.4702p
 tfr_delay_011=   2.4822p  targ=   2.0800n   trig=   2.0775n
 trf_delay_111= 751.8932f  targ=   2.0807n   trig=   2.0800n
 tfr_delay_111= 267.7366f  targ=  30.9815p   trig=  30.7138p
x

        time    voltage      voltage    
                 outin_00     outin_10  
    0.            2.8356m    747.6267m  
   10.00000p     25.0892m    746.9897m  
   20.00000p     77.4525m    741.8137m  
   30.00000p    449.3488m    450.7553m  
   40.00000p    715.7531m      6.6250m  
   50.00000p    744.0183m      3.0992m  
   60.00000p    747.7729m      2.9558m  
   70.00000p    747.7635m      2.9664m  
   80.00000p    747.7725m      2.9488m  
   90.00000p    747.7650m      2.9671m  
  100.00000p    747.7575m      2.9854m  
  110.00000p    747.7554m      2.9903m  
  120.00000p    747.7581m      2.9835m  
  130.00000p    747.7607m      2.9766m  
  140.00000p    747.7634m      2.9698m  
  150.00000p    747.7660m      2.9630m  
  160.00000p    747.7687m      2.9561m  
  170.00000p    747.7713m      2.9493m  
  180.00000p    747.7740m      2.9424m  
  190.00000p    747.7737m      2.9433m  
  200.00000p    747.7725m      2.9465m  
  210.00000p    747.7712m      2.9498m  
  220.00000p    747.7700m      2.9530m  
  230.00000p    747.7688m      2.9562m  
  240.00000p    747.7675m      2.9595m  
  250.00000p    747.7663m      2.9627m  
  260.00000p    747.7651m      2.9659m  
  270.00000p    747.7639m      2.9692m  
  280.00000p    747.7626m      2.9724m  
  290.00000p    747.7614m      2.9756m  
  300.00000p    747.7602m      2.9789m  
  310.00000p    747.7589m      2.9821m  
  320.00000p    747.7577m      2.9853m  
  330.00000p    747.7565m      2.9886m  
  340.00000p    747.7553m      2.9918m  
  350.00000p    747.7555m      2.9911m  
  360.00000p    747.7565m      2.9886m  
  370.00000p    747.7574m      2.9860m  
  380.00000p    747.7584m      2.9834m  
  390.00000p    747.7594m      2.9809m  
  400.00000p    747.7603m      2.9783m  
  410.00000p    747.7613m      2.9757m  
  420.00000p    747.7622m      2.9731m  
  430.00000p    747.7632m      2.9706m  
  440.00000p    747.7642m      2.9680m  
  450.00000p    747.7651m      2.9654m  
  460.00000p    747.7661m      2.9629m  
  470.00000p    747.7671m      2.9603m  
  480.00000p    747.7680m      2.9577m  
  490.00000p    747.7690m      2.9551m  
  500.00000p    747.7700m      2.9526m  
  510.00000p    747.7709m      2.9500m  
  520.00000p    747.7719m      2.9474m  
  530.00000p    747.7729m      2.9449m  
  540.00000p    747.7738m      2.9423m  
  550.00000p    747.7735m      2.9431m  
  560.00000p    747.7726m      2.9457m  
  570.00000p    747.7716m      2.9482m  
  580.00000p    747.7707m      2.9508m  
  590.00000p    747.7697m      2.9533m  
  600.00000p    747.7688m      2.9559m  
  610.00000p    747.7679m      2.9584m  
  620.00000p    747.7669m      2.9610m  
  630.00000p    747.7660m      2.9635m  
  640.00000p    747.7650m      2.9660m  
  650.00000p    747.7641m      2.9686m  
  660.00000p    747.7631m      2.9711m  
  670.00000p    747.7622m      2.9737m  
  680.00000p    747.7613m      2.9762m  
  690.00000p    747.7603m      2.9788m  
  700.00000p    747.7594m      2.9813m  
  710.00000p    747.7584m      2.9839m  
  720.00000p    747.7575m      2.9864m  
  730.00000p    747.7565m      2.9889m  
  740.00000p    747.7556m      2.9915m  
  750.00000p    747.7559m      2.9906m  
  760.00000p    747.7568m      2.9881m  
  770.00000p    747.7577m      2.9856m  
  780.00000p    747.7587m      2.9831m  
  790.00000p    747.7596m      2.9806m  
  800.00000p    747.7605m      2.9781m  
  810.00000p    747.7614m      2.9755m  
  820.00000p    747.7624m      2.9730m  
  830.00000p    747.7633m      2.9705m  
  840.00000p    747.7642m      2.9680m  
  850.00000p    747.7651m      2.9655m  
  860.00000p    747.7660m      2.9629m  
  870.00000p    747.7670m      2.9604m  
  880.00000p    747.7679m      2.9579m  
  890.00000p    747.7688m      2.9554m  
  900.00000p    747.7697m      2.9529m  
  910.00000p    747.7706m      2.9504m  
  920.00000p    747.7716m      2.9478m  
  930.00000p    747.7725m      2.9453m  
  940.00000p    747.7734m      2.9428m  
  950.00000p    747.7726m      2.9451m  
  960.00000p    747.7709m      2.9497m  
  970.00000p    747.7693m      2.9544m  
  980.00000p    747.7676m      2.9590m  
  990.00000p    747.7659m      2.9637m  
    1.00000n    747.7642m      2.9683m  
    1.01000n    747.7626m      2.9730m  
    1.02000n    747.7609m      2.9776m  
    1.03000n    747.7592m      2.9823m  
    1.04000n    747.7576m      2.9869m  
    1.05000n    747.7559m      2.9916m  
    1.06000n    727.7936m      3.4344m  
    1.07000n    567.3204m     37.5645m  
    1.08000n    262.5328m    428.4405m  
    1.09000n     33.4595m    744.2393m  
    1.10000n      6.0388m    747.1504m  
    1.11000n      2.8360m    747.6262m  
    1.12000n      2.8300m    747.6349m  
    1.13000n      2.8313m    747.6328m  
    1.14000n      2.8385m    747.6224m  
    1.15000n      2.8444m    747.6137m  
    1.16000n      2.8423m    747.6168m  
    1.17000n      2.8402m    747.6199m  
    1.18000n      2.8381m    747.6231m  
    1.19000n      2.8360m    747.6262m  
    1.20000n      2.8339m    747.6293m  
    1.21000n      2.8317m    747.6324m  
    1.22000n      2.8296m    747.6355m  
    1.23000n      2.8275m    747.6387m  
    1.24000n      2.8275m    747.6387m  
    1.25000n      2.8284m    747.6373m  
    1.26000n      2.8294m    747.6359m  
    1.27000n      2.8303m    747.6345m  
    1.28000n      2.8313m    747.6331m  
    1.29000n      2.8322m    747.6317m  
    1.30000n      2.8332m    747.6303m  
    1.31000n      2.8341m    747.6289m  
    1.32000n      2.8351m    747.6275m  
    1.33000n      2.8360m    747.6261m  
    1.34000n      2.8370m    747.6247m  
    1.35000n      2.8379m    747.6233m  
    1.36000n      2.8388m    747.6219m  
    1.37000n      2.8398m    747.6205m  
    1.38000n      2.8407m    747.6191m  
    1.39000n      2.8417m    747.6177m  
    1.40000n      2.8426m    747.6163m  
    1.41000n      2.8436m    747.6149m  
    1.42000n      2.8439m    747.6144m  
    1.43000n      2.8430m    747.6157m  
    1.44000n      2.8422m    747.6169m  
    1.45000n      2.8413m    747.6182m  
    1.46000n      2.8405m    747.6195m  
    1.47000n      2.8396m    747.6207m  
    1.48000n      2.8388m    747.6220m  
    1.49000n      2.8379m    747.6233m  
    1.50000n      2.8371m    747.6245m  
    1.51000n      2.8362m    747.6258m  
    1.52000n      2.8354m    747.6271m  
    1.53000n      2.8345m    747.6283m  
    1.54000n      2.8337m    747.6296m  
    1.55000n      2.8328m    747.6309m  
    1.56000n      2.8319m    747.6321m  
    1.57000n      2.8311m    747.6334m  
    1.58000n      2.8302m    747.6347m  
    1.59000n      2.8294m    747.6359m  
    1.60000n      2.8285m    747.6372m  
    1.61000n      2.8277m    747.6385m  
    1.62000n      2.8274m    747.6388m  
    1.63000n      2.8283m    747.6376m  
    1.64000n      2.8291m    747.6363m  
    1.65000n      2.8299m    747.6351m  
    1.66000n      2.8308m    747.6339m  
    1.67000n      2.8316m    747.6326m  
    1.68000n      2.8325m    747.6314m  
    1.69000n      2.8333m    747.6301m  
    1.70000n      2.8341m    747.6289m  
    1.71000n      2.8350m    747.6276m  
    1.72000n      2.8358m    747.6264m  
    1.73000n      2.8367m    747.6251m  
    1.74000n      2.8375m    747.6239m  
    1.75000n      2.8383m    747.6226m  
    1.76000n      2.8392m    747.6214m  
    1.77000n      2.8400m    747.6201m  
    1.78000n      2.8409m    747.6189m  
    1.79000n      2.8417m    747.6176m  
    1.80000n      2.8425m    747.6164m  
    1.81000n      2.8434m    747.6151m  
    1.82000n      2.8436m    747.6148m  
    1.83000n      2.8427m    747.6161m  
    1.84000n      2.8418m    747.6175m  
    1.85000n      2.8409m    747.6188m  
    1.86000n      2.8400m    747.6201m  
    1.87000n      2.8391m    747.6215m  
    1.88000n      2.8382m    747.6228m  
    1.89000n      2.8373m    747.6242m  
    1.90000n      2.8364m    747.6255m  
    1.91000n      2.8355m    747.6269m  
    1.92000n      2.8346m    747.6282m  
    1.93000n      2.8337m    747.6295m  
    1.94000n      2.8328m    747.6309m  
    1.95000n      2.8319m    747.6322m  
    1.96000n      2.8310m    747.6336m  
    1.97000n      2.8301m    747.6349m  
    1.98000n      2.8292m    747.6362m  
    1.99000n      2.8283m    747.6376m  
    2.00000n      2.8274m    747.6389m  
    2.01000n     24.3479m    747.1905m  
    2.02000n     77.0430m    742.1634m  
    2.03000n    450.5432m    437.5307m  
    2.04000n    715.4539m      5.8040m  
    2.05000n    744.4443m      4.1711m  
    2.06000n    747.7499m      2.9685m  
    2.07000n    747.7858m      2.9651m  
    2.08000n    747.7645m      2.9670m  
    2.09000n    747.7646m      2.9670m  
    2.10000n    747.7646m      2.9670m  
    2.11000n    747.7646m      2.9670m  
    2.12000n    747.7646m      2.9670m  
    2.13000n    747.7646m      2.9670m  
    2.14000n    747.7646m      2.9670m  
    2.15000n    747.7646m      2.9670m  
    2.16000n    747.7646m      2.9670m  
    2.17000n    747.7646m      2.9670m  
    2.18000n    747.7646m      2.9670m  
    2.19000n    747.7646m      2.9670m  
    2.20000n    747.7646m      2.9670m  
    2.21000n    747.7646m      2.9670m  
    2.22000n    747.7646m      2.9670m  
    2.23000n    747.7646m      2.9670m  
    2.24000n    747.7646m      2.9670m  
    2.25000n    747.7646m      2.9670m  
    2.26000n    747.7646m      2.9670m  
    2.27000n    747.7646m      2.9670m  
    2.28000n    747.7646m      2.9670m  
    2.29000n    747.7646m      2.9670m  
    2.30000n    747.7646m      2.9670m  
    2.31000n    747.7646m      2.9670m  
    2.32000n    747.7646m      2.9670m  
    2.33000n    747.7646m      2.9670m  
    2.34000n    747.7646m      2.9670m  
    2.35000n    747.7646m      2.9670m  
    2.36000n    747.7646m      2.9670m  
    2.37000n    747.7646m      2.9670m  
    2.38000n    747.7646m      2.9670m  
    2.39000n    747.7646m      2.9670m  
    2.40000n    747.7646m      2.9670m  
    2.41000n    747.7646m      2.9670m  
    2.42000n    747.7646m      2.9670m  
    2.43000n    747.7646m      2.9670m  
    2.44000n    747.7646m      2.9670m  
    2.45000n    747.7646m      2.9670m  
    2.46000n    747.7646m      2.9670m  
    2.47000n    747.7646m      2.9670m  
    2.48000n    747.7646m      2.9670m  
    2.49000n    747.7646m      2.9670m  
    2.50000n    747.7646m      2.9670m  
    2.51000n    747.7646m      2.9670m  
    2.52000n    747.7646m      2.9670m  
    2.53000n    747.7646m      2.9670m  
    2.54000n    747.7646m      2.9670m  
    2.55000n    747.7646m      2.9670m  
    2.56000n    747.7646m      2.9670m  
    2.57000n    747.7646m      2.9670m  
    2.58000n    747.7646m      2.9670m  
    2.59000n    747.7646m      2.9670m  
    2.60000n    747.7646m      2.9670m  
    2.61000n    747.7646m      2.9670m  
    2.62000n    747.7646m      2.9670m  
    2.63000n    747.7646m      2.9670m  
    2.64000n    747.7646m      2.9670m  
    2.65000n    747.7646m      2.9670m  
    2.66000n    747.7646m      2.9670m  
    2.67000n    747.7646m      2.9670m  
    2.68000n    747.7646m      2.9670m  
    2.69000n    747.7646m      2.9670m  
    2.70000n    747.7646m      2.9670m  
    2.71000n    747.7646m      2.9670m  
    2.72000n    747.7646m      2.9670m  
    2.73000n    747.7646m      2.9670m  
    2.74000n    747.7646m      2.9670m  
    2.75000n    747.7646m      2.9670m  
    2.76000n    747.7646m      2.9670m  
    2.77000n    747.7646m      2.9670m  
    2.78000n    747.7646m      2.9670m  
    2.79000n    747.7646m      2.9670m  
    2.80000n    747.7646m      2.9670m  
    2.81000n    747.7646m      2.9670m  
    2.82000n    747.7646m      2.9670m  
    2.83000n    747.7646m      2.9670m  
    2.84000n    747.7646m      2.9670m  
    2.85000n    747.7646m      2.9670m  
    2.86000n    747.7646m      2.9670m  
    2.87000n    747.7646m      2.9670m  
    2.88000n    747.7646m      2.9670m  
    2.89000n    747.7646m      2.9670m  
    2.90000n    747.7646m      2.9670m  
    2.91000n    747.7646m      2.9670m  
    2.92000n    747.7646m      2.9670m  
    2.93000n    747.7646m      2.9670m  
    2.94000n    747.7646m      2.9670m  
    2.95000n    747.7646m      2.9670m  
    2.96000n    747.7646m      2.9670m  
    2.97000n    747.7646m      2.9670m  
    2.98000n    747.7646m      2.9670m  
    2.99000n    747.7646m      2.9670m  
    3.00000n    747.7646m      2.9670m  
    3.01000n    747.7646m      2.9670m  
    3.02000n    747.7646m      2.9670m  
    3.03000n    747.7646m      2.9670m  
    3.04000n    747.7646m      2.9670m  
    3.05000n    747.7646m      2.9670m  
    3.06000n    726.4003m      3.6839m  
    3.07000n    660.4953m     11.1031m  
    3.08000n    258.1291m    366.2918m  
    3.09000n     33.2355m    744.1788m  
    3.10000n      5.7301m    746.4055m  
    3.11000n      2.8347m    747.6301m  
    3.12000n      2.8315m    747.6305m  
    3.13000n      2.8305m    747.6327m  
    3.14000n      2.8369m    747.6257m  
    3.15000n      2.8433m    747.6188m  
    3.16000n      2.8428m    747.6192m  
    3.17000n      2.8404m    747.6216m  
    3.18000n      2.8380m    747.6241m  
    3.19000n      2.8356m    747.6265m  
    3.20000n      2.8332m    747.6290m  
    3.21000n      2.8308m    747.6314m  
    3.22000n      2.8284m    747.6339m  
    3.23000n      2.8272m    747.6351m  
    3.24000n      2.8284m    747.6339m  
    3.25000n      2.8295m    747.6328m  
    3.26000n      2.8306m    747.6317m  
    3.27000n      2.8317m    747.6306m  
    3.28000n      2.8328m    747.6295m  
    3.29000n      2.8339m    747.6284m  
    3.30000n      2.8351m    747.6273m  
    3.31000n      2.8362m    747.6262m  
    3.32000n      2.8373m    747.6251m  
    3.33000n      2.8384m    747.6240m  
    3.34000n      2.8395m    747.6229m  
    3.35000n      2.8406m    747.6218m  
    3.36000n      2.8418m    747.6207m  
    3.37000n      2.8429m    747.6196m  
    3.38000n      2.8440m    747.6185m  
    3.39000n      2.8435m    747.6190m  
    3.40000n      2.8426m    747.6198m  
    3.41000n      2.8418m    747.6207m  
    3.42000n      2.8409m    747.6215m  
    3.43000n      2.8401m    747.6223m  
    3.44000n      2.8392m    747.6231m  
    3.45000n      2.8384m    747.6240m  
    3.46000n      2.8375m    747.6248m  
    3.47000n      2.8367m    747.6256m  
    3.48000n      2.8358m    747.6264m  
    3.49000n      2.8349m    747.6273m  
    3.50000n      2.8341m    747.6281m  
    3.51000n      2.8332m    747.6289m  
    3.52000n      2.8324m    747.6298m  
    3.53000n      2.8315m    747.6306m  
    3.54000n      2.8307m    747.6314m  
    3.55000n      2.8298m    747.6322m  
    3.56000n      2.8290m    747.6331m  
    3.57000n      2.8281m    747.6339m  
    3.58000n      2.8273m    747.6347m  
    3.59000n      2.8278m    747.6342m  
    3.60000n      2.8287m    747.6334m  
    3.61000n      2.8295m    747.6326m  
    3.62000n      2.8303m    747.6318m  
    3.63000n      2.8312m    747.6310m  
    3.64000n      2.8320m    747.6302m  
    3.65000n      2.8329m    747.6294m  
    3.66000n      2.8337m    747.6286m  
    3.67000n      2.8346m    747.6278m  
    3.68000n      2.8354m    747.6270m  
    3.69000n      2.8362m    747.6262m  
    3.70000n      2.8371m    747.6254m  
    3.71000n      2.8379m    747.6246m  
    3.72000n      2.8388m    747.6238m  
    3.73000n      2.8396m    747.6230m  
    3.74000n      2.8404m    747.6222m  
    3.75000n      2.8413m    747.6214m  
    3.76000n      2.8421m    747.6206m  
    3.77000n      2.8430m    747.6198m  
    3.78000n      2.8438m    747.6190m  
    3.79000n      2.8433m    747.6194m  
    3.80000n      2.8426m    747.6201m  
    3.81000n      2.8418m    747.6208m  
    3.82000n      2.8410m    747.6216m  
    3.83000n      2.8403m    747.6223m  
    3.84000n      2.8395m    747.6230m  
    3.85000n      2.8388m    747.6237m  
    3.86000n      2.8380m    747.6244m  
    3.87000n      2.8372m    747.6251m  
    3.88000n      2.8365m    747.6258m  
    3.89000n      2.8357m    747.6265m  
    3.90000n      2.8350m    747.6273m  
    3.91000n      2.8342m    747.6280m  
    3.92000n      2.8334m    747.6287m  
    3.93000n      2.8327m    747.6294m  
    3.94000n      2.8319m    747.6301m  
    3.95000n      2.8311m    747.6308m  
    3.96000n      2.8304m    747.6315m  
    3.97000n      2.8296m    747.6322m  
    3.98000n      2.8289m    747.6329m  
    3.99000n      2.8281m    747.6337m  
    4.00000n      2.8273m    747.6344m  
y
x

        time    voltage      voltage    
                 outin_10     outin_20  
    0.          747.6267m      2.9753m  
   10.00000p    746.9897m      2.9809m  
   20.00000p    741.8137m      3.1856m  
   30.00000p    450.7553m    210.0114m  
   40.00000p      6.6250m    746.3568m  
   50.00000p      3.0992m    746.4251m  
   60.00000p      2.9558m    747.6212m  
   70.00000p      2.9664m    747.6168m  
   80.00000p      2.9488m    747.6092m  
   90.00000p      2.9671m    747.6212m  
  100.00000p      2.9854m    747.6332m  
  110.00000p      2.9903m    747.6363m  
  120.00000p      2.9835m    747.6315m  
  130.00000p      2.9766m    747.6267m  
  140.00000p      2.9698m    747.6219m  
  150.00000p      2.9630m    747.6171m  
  160.00000p      2.9561m    747.6123m  
  170.00000p      2.9493m    747.6075m  
  180.00000p      2.9424m    747.6027m  
  190.00000p      2.9433m    747.6033m  
  200.00000p      2.9465m    747.6057m  
  210.00000p      2.9498m    747.6080m  
  220.00000p      2.9530m    747.6103m  
  230.00000p      2.9562m    747.6127m  
  240.00000p      2.9595m    747.6150m  
  250.00000p      2.9627m    747.6173m  
  260.00000p      2.9659m    747.6197m  
  270.00000p      2.9692m    747.6220m  
  280.00000p      2.9724m    747.6243m  
  290.00000p      2.9756m    747.6266m  
  300.00000p      2.9789m    747.6290m  
  310.00000p      2.9821m    747.6313m  
  320.00000p      2.9853m    747.6336m  
  330.00000p      2.9886m    747.6360m  
  340.00000p      2.9918m    747.6383m  
  350.00000p      2.9911m    747.6378m  
  360.00000p      2.9886m    747.6359m  
  370.00000p      2.9860m    747.6341m  
  380.00000p      2.9834m    747.6322m  
  390.00000p      2.9809m    747.6303m  
  400.00000p      2.9783m    747.6284m  
  410.00000p      2.9757m    747.6265m  
  420.00000p      2.9731m    747.6246m  
  430.00000p      2.9706m    747.6227m  
  440.00000p      2.9680m    747.6209m  
  450.00000p      2.9654m    747.6190m  
  460.00000p      2.9629m    747.6171m  
  470.00000p      2.9603m    747.6152m  
  480.00000p      2.9577m    747.6133m  
  490.00000p      2.9551m    747.6114m  
  500.00000p      2.9526m    747.6096m  
  510.00000p      2.9500m    747.6077m  
  520.00000p      2.9474m    747.6058m  
  530.00000p      2.9449m    747.6039m  
  540.00000p      2.9423m    747.6020m  
  550.00000p      2.9431m    747.6027m  
  560.00000p      2.9457m    747.6046m  
  570.00000p      2.9482m    747.6065m  
  580.00000p      2.9508m    747.6083m  
  590.00000p      2.9533m    747.6102m  
  600.00000p      2.9559m    747.6121m  
  610.00000p      2.9584m    747.6140m  
  620.00000p      2.9610m    747.6159m  
  630.00000p      2.9635m    747.6178m  
  640.00000p      2.9660m    747.6197m  
  650.00000p      2.9686m    747.6216m  
  660.00000p      2.9711m    747.6235m  
  670.00000p      2.9737m    747.6254m  
  680.00000p      2.9762m    747.6272m  
  690.00000p      2.9788m    747.6291m  
  700.00000p      2.9813m    747.6310m  
  710.00000p      2.9839m    747.6329m  
  720.00000p      2.9864m    747.6348m  
  730.00000p      2.9889m    747.6367m  
  740.00000p      2.9915m    747.6386m  
  750.00000p      2.9906m    747.6379m  
  760.00000p      2.9881m    747.6360m  
  770.00000p      2.9856m    747.6341m  
  780.00000p      2.9831m    747.6322m  
  790.00000p      2.9806m    747.6304m  
  800.00000p      2.9781m    747.6285m  
  810.00000p      2.9755m    747.6266m  
  820.00000p      2.9730m    747.6247m  
  830.00000p      2.9705m    747.6228m  
  840.00000p      2.9680m    747.6209m  
  850.00000p      2.9655m    747.6190m  
  860.00000p      2.9629m    747.6171m  
  870.00000p      2.9604m    747.6152m  
  880.00000p      2.9579m    747.6133m  
  890.00000p      2.9554m    747.6114m  
  900.00000p      2.9529m    747.6095m  
  910.00000p      2.9504m    747.6076m  
  920.00000p      2.9478m    747.6057m  
  930.00000p      2.9453m    747.6038m  
  940.00000p      2.9428m    747.6019m  
  950.00000p      2.9451m    747.6037m  
  960.00000p      2.9497m    747.6072m  
  970.00000p      2.9544m    747.6108m  
  980.00000p      2.9590m    747.6144m  
  990.00000p      2.9637m    747.6180m  
    1.00000n      2.9683m    747.6215m  
    1.01000n      2.9730m    747.6251m  
    1.02000n      2.9776m    747.6287m  
    1.03000n      2.9823m    747.6322m  
    1.04000n      2.9869m    747.6358m  
    1.05000n      2.9916m    747.6394m  
    1.06000n      3.4344m    747.6160m  
    1.07000n     37.5645m    745.8891m  
    1.08000n    428.4405m    285.6884m  
    1.09000n    744.2393m      3.3480m  
    1.10000n    747.1504m      2.9280m  
    1.11000n    747.6262m      2.9736m  
    1.12000n    747.6349m      2.9778m  
    1.13000n    747.6328m      2.9765m  
    1.14000n    747.6224m      2.9738m  
    1.15000n    747.6137m      2.9716m  
    1.16000n    747.6168m      2.9725m  
    1.17000n    747.6199m      2.9734m  
    1.18000n    747.6231m      2.9743m  
    1.19000n    747.6262m      2.9753m  
    1.20000n    747.6293m      2.9762m  
    1.21000n    747.6324m      2.9771m  
    1.22000n    747.6355m      2.9780m  
    1.23000n    747.6387m      2.9789m  
    1.24000n    747.6387m      2.9789m  
    1.25000n    747.6373m      2.9785m  
    1.26000n    747.6359m      2.9781m  
    1.27000n    747.6345m      2.9776m  
    1.28000n    747.6331m      2.9772m  
    1.29000n    747.6317m      2.9768m  
    1.30000n    747.6303m      2.9764m  
    1.31000n    747.6289m      2.9759m  
    1.32000n    747.6275m      2.9755m  
    1.33000n    747.6261m      2.9751m  
    1.34000n    747.6247m      2.9746m  
    1.35000n    747.6233m      2.9742m  
    1.36000n    747.6219m      2.9738m  
    1.37000n    747.6205m      2.9733m  
    1.38000n    747.6191m      2.9729m  
    1.39000n    747.6177m      2.9725m  
    1.40000n    747.6163m      2.9720m  
    1.41000n    747.6149m      2.9716m  
    1.42000n    747.6144m      2.9715m  
    1.43000n    747.6157m      2.9719m  
    1.44000n    747.6169m      2.9723m  
    1.45000n    747.6182m      2.9727m  
    1.46000n    747.6195m      2.9731m  
    1.47000n    747.6207m      2.9735m  
    1.48000n    747.6220m      2.9739m  
    1.49000n    747.6233m      2.9743m  
    1.50000n    747.6245m      2.9747m  
    1.51000n    747.6258m      2.9751m  
    1.52000n    747.6271m      2.9755m  
    1.53000n    747.6283m      2.9759m  
    1.54000n    747.6296m      2.9763m  
    1.55000n    747.6309m      2.9767m  
    1.56000n    747.6321m      2.9771m  
    1.57000n    747.6334m      2.9775m  
    1.58000n    747.6347m      2.9779m  
    1.59000n    747.6359m      2.9783m  
    1.60000n    747.6372m      2.9787m  
    1.61000n    747.6385m      2.9791m  
    1.62000n    747.6388m      2.9792m  
    1.63000n    747.6376m      2.9788m  
    1.64000n    747.6363m      2.9784m  
    1.65000n    747.6351m      2.9780m  
    1.66000n    747.6339m      2.9776m  
    1.67000n    747.6326m      2.9772m  
    1.68000n    747.6314m      2.9768m  
    1.69000n    747.6301m      2.9764m  
    1.70000n    747.6289m      2.9759m  
    1.71000n    747.6276m      2.9755m  
    1.72000n    747.6264m      2.9751m  
    1.73000n    747.6251m      2.9747m  
    1.74000n    747.6239m      2.9743m  
    1.75000n    747.6226m      2.9739m  
    1.76000n    747.6214m      2.9735m  
    1.77000n    747.6201m      2.9731m  
    1.78000n    747.6189m      2.9727m  
    1.79000n    747.6176m      2.9723m  
    1.80000n    747.6164m      2.9719m  
    1.81000n    747.6151m      2.9715m  
    1.82000n    747.6148m      2.9714m  
    1.83000n    747.6161m      2.9718m  
    1.84000n    747.6175m      2.9723m  
    1.85000n    747.6188m      2.9727m  
    1.86000n    747.6201m      2.9732m  
    1.87000n    747.6215m      2.9736m  
    1.88000n    747.6228m      2.9741m  
    1.89000n    747.6242m      2.9745m  
    1.90000n    747.6255m      2.9750m  
    1.91000n    747.6269m      2.9754m  
    1.92000n    747.6282m      2.9758m  
    1.93000n    747.6295m      2.9763m  
    1.94000n    747.6309m      2.9767m  
    1.95000n    747.6322m      2.9772m  
    1.96000n    747.6336m      2.9776m  
    1.97000n    747.6349m      2.9781m  
    1.98000n    747.6362m      2.9785m  
    1.99000n    747.6376m      2.9790m  
    2.00000n    747.6389m      2.9794m  
    2.01000n    747.1905m      2.9842m  
    2.02000n    742.1634m      3.1456m  
    2.03000n    437.5307m     75.1472m  
    2.04000n      5.8040m    745.1105m  
    2.05000n      4.1711m    749.4216m  
    2.06000n      2.9685m    747.6063m  
    2.07000n      2.9651m    747.6414m  
    2.08000n      2.9670m    747.6202m  
    2.09000n      2.9670m    747.6203m  
    2.10000n      2.9670m    747.6203m  
    2.11000n      2.9670m    747.6203m  
    2.12000n      2.9670m    747.6203m  
    2.13000n      2.9670m    747.6203m  
    2.14000n      2.9670m    747.6203m  
    2.15000n      2.9670m    747.6203m  
    2.16000n      2.9670m    747.6203m  
    2.17000n      2.9670m    747.6203m  
    2.18000n      2.9670m    747.6203m  
    2.19000n      2.9670m    747.6203m  
    2.20000n      2.9670m    747.6203m  
    2.21000n      2.9670m    747.6203m  
    2.22000n      2.9670m    747.6203m  
    2.23000n      2.9670m    747.6203m  
    2.24000n      2.9670m    747.6203m  
    2.25000n      2.9670m    747.6203m  
    2.26000n      2.9670m    747.6203m  
    2.27000n      2.9670m    747.6203m  
    2.28000n      2.9670m    747.6203m  
    2.29000n      2.9670m    747.6203m  
    2.30000n      2.9670m    747.6203m  
    2.31000n      2.9670m    747.6203m  
    2.32000n      2.9670m    747.6203m  
    2.33000n      2.9670m    747.6203m  
    2.34000n      2.9670m    747.6203m  
    2.35000n      2.9670m    747.6203m  
    2.36000n      2.9670m    747.6203m  
    2.37000n      2.9670m    747.6203m  
    2.38000n      2.9670m    747.6203m  
    2.39000n      2.9670m    747.6203m  
    2.40000n      2.9670m    747.6203m  
    2.41000n      2.9670m    747.6203m  
    2.42000n      2.9670m    747.6203m  
    2.43000n      2.9670m    747.6203m  
    2.44000n      2.9670m    747.6203m  
    2.45000n      2.9670m    747.6203m  
    2.46000n      2.9670m    747.6203m  
    2.47000n      2.9670m    747.6203m  
    2.48000n      2.9670m    747.6203m  
    2.49000n      2.9670m    747.6203m  
    2.50000n      2.9670m    747.6203m  
    2.51000n      2.9670m    747.6203m  
    2.52000n      2.9670m    747.6203m  
    2.53000n      2.9670m    747.6203m  
    2.54000n      2.9670m    747.6203m  
    2.55000n      2.9670m    747.6203m  
    2.56000n      2.9670m    747.6203m  
    2.57000n      2.9670m    747.6203m  
    2.58000n      2.9670m    747.6203m  
    2.59000n      2.9670m    747.6203m  
    2.60000n      2.9670m    747.6203m  
    2.61000n      2.9670m    747.6203m  
    2.62000n      2.9670m    747.6203m  
    2.63000n      2.9670m    747.6203m  
    2.64000n      2.9670m    747.6203m  
    2.65000n      2.9670m    747.6203m  
    2.66000n      2.9670m    747.6203m  
    2.67000n      2.9670m    747.6203m  
    2.68000n      2.9670m    747.6203m  
    2.69000n      2.9670m    747.6203m  
    2.70000n      2.9670m    747.6203m  
    2.71000n      2.9670m    747.6203m  
    2.72000n      2.9670m    747.6203m  
    2.73000n      2.9670m    747.6203m  
    2.74000n      2.9670m    747.6203m  
    2.75000n      2.9670m    747.6203m  
    2.76000n      2.9670m    747.6203m  
    2.77000n      2.9670m    747.6203m  
    2.78000n      2.9670m    747.6203m  
    2.79000n      2.9670m    747.6203m  
    2.80000n      2.9670m    747.6203m  
    2.81000n      2.9670m    747.6203m  
    2.82000n      2.9670m    747.6203m  
    2.83000n      2.9670m    747.6203m  
    2.84000n      2.9670m    747.6203m  
    2.85000n      2.9670m    747.6203m  
    2.86000n      2.9670m    747.6203m  
    2.87000n      2.9670m    747.6203m  
    2.88000n      2.9670m    747.6203m  
    2.89000n      2.9670m    747.6203m  
    2.90000n      2.9670m    747.6203m  
    2.91000n      2.9670m    747.6203m  
    2.92000n      2.9670m    747.6203m  
    2.93000n      2.9670m    747.6203m  
    2.94000n      2.9670m    747.6203m  
    2.95000n      2.9670m    747.6203m  
    2.96000n      2.9670m    747.6203m  
    2.97000n      2.9670m    747.6203m  
    2.98000n      2.9670m    747.6203m  
    2.99000n      2.9670m    747.6203m  
    3.00000n      2.9670m    747.6203m  
    3.01000n      2.9670m    747.6203m  
    3.02000n      2.9670m    747.6203m  
    3.03000n      2.9670m    747.6203m  
    3.04000n      2.9670m    747.6203m  
    3.05000n      2.9670m    747.6203m  
    3.06000n      3.6839m    747.6177m  
    3.07000n     11.1031m    747.4954m  
    3.08000n    366.2918m    571.9034m  
    3.09000n    744.1788m      2.8053m  
    3.10000n    746.4055m      1.2423m  
    3.11000n    747.6301m      2.9782m  
    3.12000n    747.6305m      2.9610m  
    3.13000n    747.6327m      2.9605m  
    3.14000n    747.6257m      2.9803m  
    3.15000n    747.6188m      3.0001m  
    3.16000n    747.6192m      2.9983m  
    3.17000n    747.6216m      2.9905m  
    3.18000n    747.6241m      2.9827m  
    3.19000n    747.6265m      2.9749m  
    3.20000n    747.6290m      2.9671m  
    3.21000n    747.6314m      2.9594m  
    3.22000n    747.6339m      2.9516m  
    3.23000n    747.6351m      2.9479m  
    3.24000n    747.6339m      2.9516m  
    3.25000n    747.6328m      2.9553m  
    3.26000n    747.6317m      2.9590m  
    3.27000n    747.6306m      2.9626m  
    3.28000n    747.6295m      2.9663m  
    3.29000n    747.6284m      2.9700m  
    3.30000n    747.6273m      2.9737m  
    3.31000n    747.6262m      2.9774m  
    3.32000n    747.6251m      2.9811m  
    3.33000n    747.6240m      2.9848m  
    3.34000n    747.6229m      2.9885m  
    3.35000n    747.6218m      2.9922m  
    3.36000n    747.6207m      2.9959m  
    3.37000n    747.6196m      2.9995m  
    3.38000n    747.6185m      3.0032m  
    3.39000n    747.6190m      3.0015m  
    3.40000n    747.6198m      2.9986m  
    3.41000n    747.6207m      2.9958m  
    3.42000n    747.6215m      2.9929m  
    3.43000n    747.6223m      2.9901m  
    3.44000n    747.6231m      2.9873m  
    3.45000n    747.6240m      2.9844m  
    3.46000n    747.6248m      2.9816m  
    3.47000n    747.6256m      2.9787m  
    3.48000n    747.6264m      2.9759m  
    3.49000n    747.6273m      2.9730m  
    3.50000n    747.6281m      2.9702m  
    3.51000n    747.6289m      2.9673m  
    3.52000n    747.6298m      2.9645m  
    3.53000n    747.6306m      2.9616m  
    3.54000n    747.6314m      2.9588m  
    3.55000n    747.6322m      2.9559m  
    3.56000n    747.6331m      2.9531m  
    3.57000n    747.6339m      2.9502m  
    3.58000n    747.6347m      2.9474m  
    3.59000n    747.6342m      2.9492m  
    3.60000n    747.6334m      2.9521m  
    3.61000n    747.6326m      2.9549m  
    3.62000n    747.6318m      2.9577m  
    3.63000n    747.6310m      2.9606m  
    3.64000n    747.6302m      2.9634m  
    3.65000n    747.6294m      2.9663m  
    3.66000n    747.6286m      2.9691m  
    3.67000n    747.6278m      2.9719m  
    3.68000n    747.6270m      2.9748m  
    3.69000n    747.6262m      2.9776m  
    3.70000n    747.6254m      2.9804m  
    3.71000n    747.6246m      2.9833m  
    3.72000n    747.6238m      2.9861m  
    3.73000n    747.6230m      2.9889m  
    3.74000n    747.6222m      2.9918m  
    3.75000n    747.6214m      2.9946m  
    3.76000n    747.6206m      2.9974m  
    3.77000n    747.6198m      3.0003m  
    3.78000n    747.6190m      3.0031m  
    3.79000n    747.6194m      3.0015m  
    3.80000n    747.6201m      2.9989m  
    3.81000n    747.6208m      2.9963m  
    3.82000n    747.6216m      2.9937m  
    3.83000n    747.6223m      2.9911m  
    3.84000n    747.6230m      2.9885m  
    3.85000n    747.6237m      2.9859m  
    3.86000n    747.6244m      2.9833m  
    3.87000n    747.6251m      2.9808m  
    3.88000n    747.6258m      2.9782m  
    3.89000n    747.6265m      2.9756m  
    3.90000n    747.6273m      2.9730m  
    3.91000n    747.6280m      2.9704m  
    3.92000n    747.6287m      2.9678m  
    3.93000n    747.6294m      2.9652m  
    3.94000n    747.6301m      2.9626m  
    3.95000n    747.6308m      2.9601m  
    3.96000n    747.6315m      2.9575m  
    3.97000n    747.6322m      2.9549m  
    3.98000n    747.6329m      2.9523m  
    3.99000n    747.6337m      2.9497m  
    4.00000n    747.6344m      2.9471m  
y
x

        time    voltage      voltage    
                 outin_01     outin_11  
    0.            2.8356m    747.6267m  
   10.00000p     25.0892m    746.9897m  
   20.00000p     77.4525m    741.8137m  
   30.00000p    449.3488m    450.7553m  
   40.00000p    715.7531m      6.6250m  
   50.00000p    744.0183m      3.0992m  
   60.00000p    747.7729m      2.9558m  
   70.00000p    747.7635m      2.9664m  
   80.00000p    747.7725m      2.9488m  
   90.00000p    747.7650m      2.9671m  
  100.00000p    747.7575m      2.9854m  
  110.00000p    747.7554m      2.9903m  
  120.00000p    747.7581m      2.9835m  
  130.00000p    747.7607m      2.9766m  
  140.00000p    747.7634m      2.9698m  
  150.00000p    747.7660m      2.9630m  
  160.00000p    747.7687m      2.9561m  
  170.00000p    747.7713m      2.9493m  
  180.00000p    747.7740m      2.9424m  
  190.00000p    747.7737m      2.9433m  
  200.00000p    747.7725m      2.9465m  
  210.00000p    747.7712m      2.9498m  
  220.00000p    747.7700m      2.9530m  
  230.00000p    747.7688m      2.9562m  
  240.00000p    747.7675m      2.9595m  
  250.00000p    747.7663m      2.9627m  
  260.00000p    747.7651m      2.9659m  
  270.00000p    747.7639m      2.9692m  
  280.00000p    747.7626m      2.9724m  
  290.00000p    747.7614m      2.9756m  
  300.00000p    747.7602m      2.9789m  
  310.00000p    747.7589m      2.9821m  
  320.00000p    747.7577m      2.9853m  
  330.00000p    747.7565m      2.9886m  
  340.00000p    747.7553m      2.9918m  
  350.00000p    747.7555m      2.9911m  
  360.00000p    747.7565m      2.9886m  
  370.00000p    747.7574m      2.9860m  
  380.00000p    747.7584m      2.9834m  
  390.00000p    747.7594m      2.9809m  
  400.00000p    747.7603m      2.9783m  
  410.00000p    747.7613m      2.9757m  
  420.00000p    747.7622m      2.9731m  
  430.00000p    747.7632m      2.9706m  
  440.00000p    747.7642m      2.9680m  
  450.00000p    747.7651m      2.9654m  
  460.00000p    747.7661m      2.9629m  
  470.00000p    747.7671m      2.9603m  
  480.00000p    747.7680m      2.9577m  
  490.00000p    747.7690m      2.9551m  
  500.00000p    747.7700m      2.9526m  
  510.00000p    747.7709m      2.9500m  
  520.00000p    747.7719m      2.9474m  
  530.00000p    747.7729m      2.9449m  
  540.00000p    747.7738m      2.9423m  
  550.00000p    747.7735m      2.9431m  
  560.00000p    747.7726m      2.9457m  
  570.00000p    747.7716m      2.9482m  
  580.00000p    747.7707m      2.9508m  
  590.00000p    747.7697m      2.9533m  
  600.00000p    747.7688m      2.9559m  
  610.00000p    747.7679m      2.9584m  
  620.00000p    747.7669m      2.9610m  
  630.00000p    747.7660m      2.9635m  
  640.00000p    747.7650m      2.9660m  
  650.00000p    747.7641m      2.9686m  
  660.00000p    747.7631m      2.9711m  
  670.00000p    747.7622m      2.9737m  
  680.00000p    747.7613m      2.9762m  
  690.00000p    747.7603m      2.9788m  
  700.00000p    747.7594m      2.9813m  
  710.00000p    747.7584m      2.9839m  
  720.00000p    747.7575m      2.9864m  
  730.00000p    747.7565m      2.9889m  
  740.00000p    747.7556m      2.9915m  
  750.00000p    747.7559m      2.9906m  
  760.00000p    747.7568m      2.9881m  
  770.00000p    747.7577m      2.9856m  
  780.00000p    747.7587m      2.9831m  
  790.00000p    747.7596m      2.9806m  
  800.00000p    747.7605m      2.9781m  
  810.00000p    747.7614m      2.9755m  
  820.00000p    747.7624m      2.9730m  
  830.00000p    747.7633m      2.9705m  
  840.00000p    747.7642m      2.9680m  
  850.00000p    747.7651m      2.9655m  
  860.00000p    747.7660m      2.9629m  
  870.00000p    747.7670m      2.9604m  
  880.00000p    747.7679m      2.9579m  
  890.00000p    747.7688m      2.9554m  
  900.00000p    747.7697m      2.9529m  
  910.00000p    747.7706m      2.9504m  
  920.00000p    747.7716m      2.9478m  
  930.00000p    747.7725m      2.9453m  
  940.00000p    747.7734m      2.9428m  
  950.00000p    747.7726m      2.9451m  
  960.00000p    747.7709m      2.9497m  
  970.00000p    747.7693m      2.9544m  
  980.00000p    747.7676m      2.9590m  
  990.00000p    747.7659m      2.9637m  
    1.00000n    747.7642m      2.9683m  
    1.01000n    747.7626m      2.9730m  
    1.02000n    747.7609m      2.9776m  
    1.03000n    747.7592m      2.9823m  
    1.04000n    747.7576m      2.9869m  
    1.05000n    747.7559m      2.9916m  
    1.06000n    747.7650m      2.9665m  
    1.07000n    747.7645m      2.9673m  
    1.08000n    747.7646m      2.9669m  
    1.09000n    747.7646m      2.9670m  
    1.10000n    747.7646m      2.9670m  
    1.11000n    747.7646m      2.9670m  
    1.12000n    747.7646m      2.9670m  
    1.13000n    747.7646m      2.9670m  
    1.14000n    747.7646m      2.9670m  
    1.15000n    747.7646m      2.9670m  
    1.16000n    747.7646m      2.9670m  
    1.17000n    747.7646m      2.9670m  
    1.18000n    747.7646m      2.9670m  
    1.19000n    747.7646m      2.9670m  
    1.20000n    747.7646m      2.9670m  
    1.21000n    747.7646m      2.9670m  
    1.22000n    747.7646m      2.9670m  
    1.23000n    747.7646m      2.9670m  
    1.24000n    747.7646m      2.9670m  
    1.25000n    747.7646m      2.9670m  
    1.26000n    747.7646m      2.9670m  
    1.27000n    747.7646m      2.9670m  
    1.28000n    747.7646m      2.9670m  
    1.29000n    747.7646m      2.9670m  
    1.30000n    747.7646m      2.9670m  
    1.31000n    747.7646m      2.9670m  
    1.32000n    747.7646m      2.9670m  
    1.33000n    747.7646m      2.9670m  
    1.34000n    747.7646m      2.9670m  
    1.35000n    747.7646m      2.9670m  
    1.36000n    747.7646m      2.9670m  
    1.37000n    747.7646m      2.9670m  
    1.38000n    747.7646m      2.9670m  
    1.39000n    747.7646m      2.9670m  
    1.40000n    747.7646m      2.9670m  
    1.41000n    747.7646m      2.9670m  
    1.42000n    747.7646m      2.9670m  
    1.43000n    747.7646m      2.9670m  
    1.44000n    747.7646m      2.9670m  
    1.45000n    747.7646m      2.9670m  
    1.46000n    747.7646m      2.9670m  
    1.47000n    747.7646m      2.9670m  
    1.48000n    747.7646m      2.9670m  
    1.49000n    747.7646m      2.9670m  
    1.50000n    747.7646m      2.9670m  
    1.51000n    747.7646m      2.9670m  
    1.52000n    747.7646m      2.9670m  
    1.53000n    747.7646m      2.9670m  
    1.54000n    747.7646m      2.9670m  
    1.55000n    747.7646m      2.9670m  
    1.56000n    747.7646m      2.9670m  
    1.57000n    747.7646m      2.9670m  
    1.58000n    747.7646m      2.9670m  
    1.59000n    747.7646m      2.9670m  
    1.60000n    747.7646m      2.9670m  
    1.61000n    747.7646m      2.9670m  
    1.62000n    747.7646m      2.9670m  
    1.63000n    747.7646m      2.9670m  
    1.64000n    747.7646m      2.9670m  
    1.65000n    747.7646m      2.9670m  
    1.66000n    747.7646m      2.9670m  
    1.67000n    747.7646m      2.9670m  
    1.68000n    747.7646m      2.9670m  
    1.69000n    747.7646m      2.9670m  
    1.70000n    747.7646m      2.9670m  
    1.71000n    747.7646m      2.9670m  
    1.72000n    747.7646m      2.9670m  
    1.73000n    747.7646m      2.9670m  
    1.74000n    747.7646m      2.9670m  
    1.75000n    747.7646m      2.9670m  
    1.76000n    747.7646m      2.9670m  
    1.77000n    747.7646m      2.9670m  
    1.78000n    747.7646m      2.9670m  
    1.79000n    747.7646m      2.9670m  
    1.80000n    747.7646m      2.9670m  
    1.81000n    747.7646m      2.9670m  
    1.82000n    747.7646m      2.9670m  
    1.83000n    747.7646m      2.9670m  
    1.84000n    747.7646m      2.9670m  
    1.85000n    747.7646m      2.9670m  
    1.86000n    747.7646m      2.9670m  
    1.87000n    747.7646m      2.9670m  
    1.88000n    747.7646m      2.9670m  
    1.89000n    747.7646m      2.9670m  
    1.90000n    747.7646m      2.9670m  
    1.91000n    747.7646m      2.9670m  
    1.92000n    747.7646m      2.9670m  
    1.93000n    747.7646m      2.9670m  
    1.94000n    747.7646m      2.9670m  
    1.95000n    747.7646m      2.9670m  
    1.96000n    747.7646m      2.9670m  
    1.97000n    747.7646m      2.9670m  
    1.98000n    747.7646m      2.9670m  
    1.99000n    747.7646m      2.9670m  
    2.00000n    747.7646m      2.9670m  
    2.01000n    747.7646m      2.9670m  
    2.02000n    747.7646m      2.9670m  
    2.03000n    747.7646m      2.9670m  
    2.04000n    747.7646m      2.9670m  
    2.05000n    747.7646m      2.9670m  
    2.06000n    726.3230m      3.6602m  
    2.07000n    649.3598m     14.1620m  
    2.08000n    255.5735m    376.0839m  
    2.09000n     -1.0230       3.1624   
    2.10000n     -1.0489       1.0792   
    2.11000n      2.8365m    747.6308m  
    2.12000n      2.8359m    747.6264m  
    2.13000n      2.8370m    747.6286m  
    2.14000n      2.8356m    747.6266m  
    2.15000n      2.8342m    747.6246m  
    2.16000n      2.8335m    747.6237m  
    2.17000n      2.8340m    747.6243m  
    2.18000n      2.8345m    747.6250m  
    2.19000n      2.8350m    747.6256m  
    2.20000n      2.8355m    747.6263m  
    2.21000n      2.8360m    747.6269m  
    2.22000n      2.8365m    747.6276m  
    2.23000n      2.8370m    747.6283m  
    2.24000n      2.8375m    747.6289m  
    2.25000n      2.8379m    747.6294m  
    2.26000n      2.8376m    747.6291m  
    2.27000n      2.8374m    747.6288m  
    2.28000n      2.8372m    747.6285m  
    2.29000n      2.8369m    747.6282m  
    2.30000n      2.8367m    747.6279m  
    2.31000n      2.8365m    747.6276m  
    2.32000n      2.8362m    747.6273m  
    2.33000n      2.8360m    747.6270m  
    2.34000n      2.8358m    747.6267m  
    2.35000n      2.8355m    747.6264m  
    2.36000n      2.8353m    747.6261m  
    2.37000n      2.8351m    747.6258m  
    2.38000n      2.8349m    747.6255m  
    2.39000n      2.8346m    747.6252m  
    2.40000n      2.8344m    747.6249m  
    2.41000n      2.8342m    747.6246m  
    2.42000n      2.8339m    747.6243m  
    2.43000n      2.8337m    747.6240m  
    2.44000n      2.8335m    747.6237m  
    2.45000n      2.8333m    747.6235m  
    2.46000n      2.8335m    747.6238m  
    2.47000n      2.8338m    747.6241m  
    2.48000n      2.8340m    747.6244m  
    2.49000n      2.8342m    747.6247m  
    2.50000n      2.8345m    747.6250m  
    2.51000n      2.8347m    747.6253m  
    2.52000n      2.8349m    747.6256m  
    2.53000n      2.8352m    747.6259m  
    2.54000n      2.8354m    747.6262m  
    2.55000n      2.8356m    747.6265m  
    2.56000n      2.8359m    747.6268m  
    2.57000n      2.8361m    747.6271m  
    2.58000n      2.8364m    747.6274m  
    2.59000n      2.8366m    747.6277m  
    2.60000n      2.8368m    747.6280m  
    2.61000n      2.8371m    747.6283m  
    2.62000n      2.8373m    747.6286m  
    2.63000n      2.8375m    747.6289m  
    2.64000n      2.8378m    747.6292m  
    2.65000n      2.8379m    747.6294m  
    2.66000n      2.8377m    747.6291m  
    2.67000n      2.8374m    747.6288m  
    2.68000n      2.8372m    747.6285m  
    2.69000n      2.8370m    747.6282m  
    2.70000n      2.8367m    747.6279m  
    2.71000n      2.8365m    747.6276m  
    2.72000n      2.8363m    747.6273m  
    2.73000n      2.8360m    747.6270m  
    2.74000n      2.8358m    747.6267m  
    2.75000n      2.8356m    747.6264m  
    2.76000n      2.8353m    747.6261m  
    2.77000n      2.8351m    747.6258m  
    2.78000n      2.8348m    747.6255m  
    2.79000n      2.8346m    747.6253m  
    2.80000n      2.8344m    747.6250m  
    2.81000n      2.8341m    747.6247m  
    2.82000n      2.8339m    747.6244m  
    2.83000n      2.8337m    747.6241m  
    2.84000n      2.8334m    747.6238m  
    2.85000n      2.8333m    747.6236m  
    2.86000n      2.8335m    747.6239m  
    2.87000n      2.8337m    747.6242m  
    2.88000n      2.8340m    747.6245m  
    2.89000n      2.8342m    747.6247m  
    2.90000n      2.8344m    747.6250m  
    2.91000n      2.8347m    747.6253m  
    2.92000n      2.8349m    747.6256m  
    2.93000n      2.8351m    747.6259m  
    2.94000n      2.8354m    747.6262m  
    2.95000n      2.8356m    747.6265m  
    2.96000n      2.8359m    747.6268m  
    2.97000n      2.8361m    747.6271m  
    2.98000n      2.8363m    747.6273m  
    2.99000n      2.8366m    747.6276m  
    3.00000n      2.8368m    747.6279m  
    3.01000n      2.8370m    747.6282m  
    3.02000n      2.8373m    747.6285m  
    3.03000n      2.8375m    747.6288m  
    3.04000n      2.8377m    747.6291m  
    3.05000n      2.8380m    747.6294m  
    3.06000n      2.8356m    747.6267m  
    3.07000n      2.8356m    747.6267m  
    3.08000n      2.8356m    747.6267m  
    3.09000n      2.8356m    747.6267m  
    3.10000n      2.8356m    747.6267m  
    3.11000n      2.8356m    747.6267m  
[...]
    3.65000n      2.8356m    747.6267m  
    3.66000n      2.8356m    747.6267m  
    3.67000n      2.8356m    747.6267m  
    3.68000n      2.8356m    747.6267m  
    3.69000n      2.8356m    747.6267m  
    3.70000n      2.8356m    747.6267m  
    3.71000n      2.8356m    747.6267m  
    3.72000n      2.8356m    747.6267m  
    3.73000n      2.8356m    747.6267m  
    3.74000n      2.8356m    747.6267m  
    3.75000n      2.8356m    747.6267m  
    3.76000n      2.8356m    747.6267m  
    3.77000n      2.8356m    747.6267m  
    3.78000n      2.8356m    747.6267m  
    3.79000n      2.8356m    747.6267m  
    3.80000n      2.8356m    747.6267m  
    3.81000n      2.8356m    747.6267m  
    3.82000n      2.8356m    747.6267m  
    3.83000n      2.8356m    747.6267m  
    3.84000n      2.8356m    747.6267m  
    3.85000n      2.8356m    747.6267m  
    3.86000n      2.8356m    747.6267m  
    3.87000n      2.8356m    747.6267m  
    3.88000n      2.8356m    747.6267m  
    3.89000n      2.8356m    747.6267m  
    3.90000n      2.8356m    747.6267m  
    3.91000n      2.8356m    747.6267m  
    3.92000n      2.8356m    747.6267m  
    3.93000n      2.8356m    747.6267m  
    3.94000n      2.8356m    747.6267m  
    3.95000n      2.8356m    747.6267m  
    3.96000n      2.8356m    747.6267m  
    3.97000n      2.8356m    747.6267m  
    3.98000n      2.8356m    747.6267m  
    3.99000n      2.8356m    747.6267m  
    4.00000n      2.8356m    747.6267m  
y
x

        time    voltage      voltage    
                 outin_11     outin_21  
    0.          747.6267m      2.9753m  
   10.00000p    746.9897m      2.9809m  
   20.00000p    741.8137m      3.1856m  
   30.00000p    450.7553m    210.0114m  
   40.00000p      6.6250m    746.3568m  
   50.00000p      3.0992m    746.4251m  
   60.00000p      2.9558m    747.6212m  
   70.00000p      2.9664m    747.6168m  
   80.00000p      2.9488m    747.6092m  
   90.00000p      2.9671m    747.6212m  
  100.00000p      2.9854m    747.6332m  
  110.00000p      2.9903m    747.6363m  
  120.00000p      2.9835m    747.6315m  
  130.00000p      2.9766m    747.6267m  
  140.00000p      2.9698m    747.6219m  
  150.00000p      2.9630m    747.6171m  
  160.00000p      2.9561m    747.6123m  
  170.00000p      2.9493m    747.6075m  
  180.00000p      2.9424m    747.6027m  
  190.00000p      2.9433m    747.6033m  
  200.00000p      2.9465m    747.6057m  
  210.00000p      2.9498m    747.6080m  
  220.00000p      2.9530m    747.6103m  
  230.00000p      2.9562m    747.6127m  
  240.00000p      2.9595m    747.6150m  
  250.00000p      2.9627m    747.6173m  
  260.00000p      2.9659m    747.6197m  
  270.00000p      2.9692m    747.6220m  
  280.00000p      2.9724m    747.6243m  
  290.00000p      2.9756m    747.6266m  
  300.00000p      2.9789m    747.6290m  
  310.00000p      2.9821m    747.6313m  
  320.00000p      2.9853m    747.6336m  
  330.00000p      2.9886m    747.6360m  
  340.00000p      2.9918m    747.6383m  
  350.00000p      2.9911m    747.6378m  
  360.00000p      2.9886m    747.6359m  
  370.00000p      2.9860m    747.6341m  
  380.00000p      2.9834m    747.6322m  
  390.00000p      2.9809m    747.6303m  
  400.00000p      2.9783m    747.6284m  
  410.00000p      2.9757m    747.6265m  
  420.00000p      2.9731m    747.6246m  
  430.00000p      2.9706m    747.6227m  
  440.00000p      2.9680m    747.6209m  
  450.00000p      2.9654m    747.6190m  
  460.00000p      2.9629m    747.6171m  
  470.00000p      2.9603m    747.6152m  
  480.00000p      2.9577m    747.6133m  
  490.00000p      2.9551m    747.6114m  
  500.00000p      2.9526m    747.6096m  
  510.00000p      2.9500m    747.6077m  
  520.00000p      2.9474m    747.6058m  
  530.00000p      2.9449m    747.6039m  
  540.00000p      2.9423m    747.6020m  
  550.00000p      2.9431m    747.6027m  
  560.00000p      2.9457m    747.6046m  
  570.00000p      2.9482m    747.6065m  
  580.00000p      2.9508m    747.6083m  
  590.00000p      2.9533m    747.6102m  
  600.00000p      2.9559m    747.6121m  
  610.00000p      2.9584m    747.6140m  
  620.00000p      2.9610m    747.6159m  
  630.00000p      2.9635m    747.6178m  
  640.00000p      2.9660m    747.6197m  
  650.00000p      2.9686m    747.6216m  
  660.00000p      2.9711m    747.6235m  
  670.00000p      2.9737m    747.6254m  
  680.00000p      2.9762m    747.6272m  
  690.00000p      2.9788m    747.6291m  
  700.00000p      2.9813m    747.6310m  
  710.00000p      2.9839m    747.6329m  
  720.00000p      2.9864m    747.6348m  
  730.00000p      2.9889m    747.6367m  
  740.00000p      2.9915m    747.6386m  
  750.00000p      2.9906m    747.6379m  
  760.00000p      2.9881m    747.6360m  
  770.00000p      2.9856m    747.6341m  
  780.00000p      2.9831m    747.6322m  
  790.00000p      2.9806m    747.6304m  
  800.00000p      2.9781m    747.6285m  
  810.00000p      2.9755m    747.6266m  
  820.00000p      2.9730m    747.6247m  
  830.00000p      2.9705m    747.6228m  
  840.00000p      2.9680m    747.6209m  
  850.00000p      2.9655m    747.6190m  
  860.00000p      2.9629m    747.6171m  
  870.00000p      2.9604m    747.6152m  
  880.00000p      2.9579m    747.6133m  
  890.00000p      2.9554m    747.6114m  
  900.00000p      2.9529m    747.6095m  
  910.00000p      2.9504m    747.6076m  
  920.00000p      2.9478m    747.6057m  
  930.00000p      2.9453m    747.6038m  
  940.00000p      2.9428m    747.6019m  
  950.00000p      2.9451m    747.6037m  
  960.00000p      2.9497m    747.6072m  
  970.00000p      2.9544m    747.6108m  
  980.00000p      2.9590m    747.6144m  
  990.00000p      2.9637m    747.6180m  
    1.00000n      2.9683m    747.6215m  
    1.01000n      2.9730m    747.6251m  
    1.02000n      2.9776m    747.6287m  
    1.03000n      2.9823m    747.6322m  
    1.04000n      2.9869m    747.6358m  
    1.05000n      2.9916m    747.6394m  
    1.06000n      2.9665m    747.6203m  
    1.07000n      2.9673m    747.6203m  
    1.08000n      2.9669m    747.6202m  
    1.09000n      2.9670m    747.6203m  
    1.10000n      2.9670m    747.6203m  
    1.11000n      2.9670m    747.6203m  
    1.12000n      2.9670m    747.6203m  
    1.13000n      2.9670m    747.6203m  
    1.14000n      2.9670m    747.6203m  
    1.15000n      2.9670m    747.6203m  
    1.16000n      2.9670m    747.6203m  
    1.17000n      2.9670m    747.6203m  
    1.18000n      2.9670m    747.6203m  
    1.19000n      2.9670m    747.6203m  
    1.20000n      2.9670m    747.6203m  
    1.21000n      2.9670m    747.6203m  
    1.22000n      2.9670m    747.6203m  
    1.23000n      2.9670m    747.6203m  
    1.24000n      2.9670m    747.6203m  
    1.25000n      2.9670m    747.6203m  
    1.26000n      2.9670m    747.6203m  
    1.27000n      2.9670m    747.6203m  
    1.28000n      2.9670m    747.6203m  
    1.29000n      2.9670m    747.6203m  
    1.30000n      2.9670m    747.6203m  
    1.31000n      2.9670m    747.6203m  
    1.32000n      2.9670m    747.6203m  
    1.33000n      2.9670m    747.6203m  
    1.34000n      2.9670m    747.6203m  
    1.35000n      2.9670m    747.6203m  
    1.36000n      2.9670m    747.6203m  
    1.37000n      2.9670m    747.6203m  
    1.38000n      2.9670m    747.6203m  
    1.39000n      2.9670m    747.6203m  
    1.40000n      2.9670m    747.6203m  
    1.41000n      2.9670m    747.6203m  
    1.42000n      2.9670m    747.6203m  
    1.43000n      2.9670m    747.6203m  
    1.44000n      2.9670m    747.6203m  
    1.45000n      2.9670m    747.6203m  
    1.46000n      2.9670m    747.6203m  
    1.47000n      2.9670m    747.6203m  
    1.48000n      2.9670m    747.6203m  
    1.49000n      2.9670m    747.6203m  
    1.50000n      2.9670m    747.6203m  
    1.51000n      2.9670m    747.6203m  
    1.52000n      2.9670m    747.6203m  
    1.53000n      2.9670m    747.6203m  
    1.54000n      2.9670m    747.6203m  
    1.55000n      2.9670m    747.6203m  
    1.56000n      2.9670m    747.6203m  
    1.57000n      2.9670m    747.6203m  
    1.58000n      2.9670m    747.6203m  
    1.59000n      2.9670m    747.6203m  
    1.60000n      2.9670m    747.6203m  
    1.61000n      2.9670m    747.6203m  
    1.62000n      2.9670m    747.6203m  
    1.63000n      2.9670m    747.6203m  
    1.64000n      2.9670m    747.6203m  
    1.65000n      2.9670m    747.6203m  
    1.66000n      2.9670m    747.6203m  
    1.67000n      2.9670m    747.6203m  
    1.68000n      2.9670m    747.6203m  
    1.69000n      2.9670m    747.6203m  
    1.70000n      2.9670m    747.6203m  
    1.71000n      2.9670m    747.6203m  
    1.72000n      2.9670m    747.6203m  
    1.73000n      2.9670m    747.6203m  
    1.74000n      2.9670m    747.6203m  
    1.75000n      2.9670m    747.6203m  
    1.76000n      2.9670m    747.6203m  
    1.77000n      2.9670m    747.6203m  
    1.78000n      2.9670m    747.6203m  
    1.79000n      2.9670m    747.6203m  
    1.80000n      2.9670m    747.6203m  
    1.81000n      2.9670m    747.6203m  
    1.82000n      2.9670m    747.6203m  
    1.83000n      2.9670m    747.6203m  
    1.84000n      2.9670m    747.6203m  
    1.85000n      2.9670m    747.6203m  
    1.86000n      2.9670m    747.6203m  
    1.87000n      2.9670m    747.6203m  
    1.88000n      2.9670m    747.6203m  
    1.89000n      2.9670m    747.6203m  
    1.90000n      2.9670m    747.6203m  
    1.91000n      2.9670m    747.6203m  
    1.92000n      2.9670m    747.6203m  
    1.93000n      2.9670m    747.6203m  
    1.94000n      2.9670m    747.6203m  
    1.95000n      2.9670m    747.6203m  
    1.96000n      2.9670m    747.6203m  
    1.97000n      2.9670m    747.6203m  
    1.98000n      2.9670m    747.6203m  
    1.99000n      2.9670m    747.6203m  
    2.00000n      2.9670m    747.6203m  
    2.01000n      2.9670m    747.6203m  
    2.02000n      2.9670m    747.6203m  
    2.03000n      2.9670m    747.6203m  
    2.04000n      2.9670m    747.6203m  
    2.05000n      2.9670m    747.6203m  
    2.06000n      3.6602m    747.6456m  
    2.07000n     14.1620m    747.3600m  
    2.08000n    376.0839m    493.4695m  
    2.09000n      3.1624    -448.9965u  
    2.10000n      1.0792     -83.1401m  
    2.11000n    747.6308m      2.9737m  
    2.12000n    747.6264m      2.9755m  
    2.13000n    747.6286m      2.9750m  
    2.14000n    747.6266m      2.9753m  
    2.15000n    747.6246m      2.9755m  
    2.16000n    747.6237m      2.9756m  
    2.17000n    747.6243m      2.9755m  
    2.18000n    747.6250m      2.9755m  
    2.19000n    747.6256m      2.9754m  
    2.20000n    747.6263m      2.9753m  
    2.21000n    747.6269m      2.9753m  
    2.22000n    747.6276m      2.9752m  
    2.23000n    747.6283m      2.9752m  
    2.24000n    747.6289m      2.9751m  
    2.25000n    747.6294m      2.9751m  
    2.26000n    747.6291m      2.9751m  
    2.27000n    747.6288m      2.9751m  
    2.28000n    747.6285m      2.9752m  
    2.29000n    747.6282m      2.9752m  
    2.30000n    747.6279m      2.9752m  
    2.31000n    747.6276m      2.9752m  
    2.32000n    747.6273m      2.9752m  
    2.33000n    747.6270m      2.9753m  
    2.34000n    747.6267m      2.9753m  
    2.35000n    747.6264m      2.9753m  
    2.36000n    747.6261m      2.9753m  
    2.37000n    747.6258m      2.9754m  
    2.38000n    747.6255m      2.9754m  
    2.39000n    747.6252m      2.9754m  
    2.40000n    747.6249m      2.9754m  
    2.41000n    747.6246m      2.9754m  
    2.42000n    747.6243m      2.9755m  
    2.43000n    747.6240m      2.9755m  
    2.44000n    747.6237m      2.9755m  
    2.45000n    747.6235m      2.9755m  
    2.46000n    747.6238m      2.9755m  
    2.47000n    747.6241m      2.9755m  
    2.48000n    747.6244m      2.9755m  
    2.49000n    747.6247m      2.9754m  
    2.50000n    747.6250m      2.9754m  
    2.51000n    747.6253m      2.9754m  
    2.52000n    747.6256m      2.9754m  
    2.53000n    747.6259m      2.9754m  
    2.54000n    747.6262m      2.9753m  
    2.55000n    747.6265m      2.9753m  
    2.56000n    747.6268m      2.9753m  
    2.57000n    747.6271m      2.9753m  
    2.58000n    747.6274m      2.9753m  
    2.59000n    747.6277m      2.9752m  
    2.60000n    747.6280m      2.9752m  
    2.61000n    747.6283m      2.9752m  
    2.62000n    747.6286m      2.9752m  
    2.63000n    747.6289m      2.9752m  
    2.64000n    747.6292m      2.9751m  
    2.65000n    747.6294m      2.9751m  
    2.66000n    747.6291m      2.9751m  
    2.67000n    747.6288m      2.9752m  
    2.68000n    747.6285m      2.9752m  
    2.69000n    747.6282m      2.9752m  
    2.70000n    747.6279m      2.9752m  
    2.71000n    747.6276m      2.9752m  
    2.72000n    747.6273m      2.9753m  
    2.73000n    747.6270m      2.9753m  
    2.74000n    747.6267m      2.9753m  
    2.75000n    747.6264m      2.9753m  
    2.76000n    747.6261m      2.9753m  
    2.77000n    747.6258m      2.9754m  
    2.78000n    747.6255m      2.9754m  
    2.79000n    747.6253m      2.9754m  
    2.80000n    747.6250m      2.9754m  
    2.81000n    747.6247m      2.9754m  
    2.82000n    747.6244m      2.9754m  
    2.83000n    747.6241m      2.9755m  
    2.84000n    747.6238m      2.9755m  
    2.85000n    747.6236m      2.9755m  
    2.86000n    747.6239m      2.9755m  
    2.87000n    747.6242m      2.9755m  
    2.88000n    747.6245m      2.9754m  
    2.89000n    747.6247m      2.9754m  
    2.90000n    747.6250m      2.9754m  
    2.91000n    747.6253m      2.9754m  
    2.92000n    747.6256m      2.9754m  
    2.93000n    747.6259m      2.9754m  
    2.94000n    747.6262m      2.9753m  
    2.95000n    747.6265m      2.9753m  
    2.96000n    747.6268m      2.9753m  
    2.97000n    747.6271m      2.9753m  
    2.98000n    747.6273m      2.9753m  
    2.99000n    747.6276m      2.9753m  
    3.00000n    747.6279m      2.9752m  
    3.01000n    747.6282m      2.9752m  
    3.02000n    747.6285m      2.9752m  
    3.03000n    747.6288m      2.9752m  
    3.04000n    747.6291m      2.9752m  
    3.05000n    747.6294m      2.9751m  
    3.06000n    747.6267m      2.9753m  
    3.07000n    747.6267m      2.9753m  
    3.08000n    747.6267m      2.9753m  
    3.09000n    747.6267m      2.9753m  
    3.10000n    747.6267m      2.9753m  
    3.11000n    747.6267m      2.9753m  
    3.12000n    747.6267m      2.9753m  
    3.13000n    747.6267m      2.9753m  
    3.14000n    747.6267m      2.9753m  
    3.15000n    747.6267m      2.9753m  
    3.16000n    747.6267m      2.9753m  
    3.17000n    747.6267m      2.9753m  
    3.18000n    747.6267m      2.9753m  
    3.19000n    747.6267m      2.9753m  
    3.20000n    747.6267m      2.9753m  
    3.21000n    747.6267m      2.9753m  
    3.22000n    747.6267m      2.9753m  
    3.23000n    747.6267m      2.9753m  
    3.24000n    747.6267m      2.9753m  
    3.25000n    747.6267m      2.9753m  
    3.26000n    747.6267m      2.9753m  
    3.27000n    747.6267m      2.9753m  
    3.28000n    747.6267m      2.9753m  
    3.29000n    747.6267m      2.9753m  
    3.30000n    747.6267m      2.9753m  
    3.31000n    747.6267m      2.9753m  
    3.32000n    747.6267m      2.9753m  
    3.33000n    747.6267m      2.9753m  
    3.34000n    747.6267m      2.9753m  
    3.35000n    747.6267m      2.9753m  
    3.36000n    747.6267m      2.9753m  
    3.37000n    747.6267m      2.9753m  
    3.38000n    747.6267m      2.9753m  
    3.39000n    747.6267m      2.9753m  
    3.40000n    747.6267m      2.9753m  
    3.41000n    747.6267m      2.9753m  
    3.42000n    747.6267m      2.9753m  
    3.43000n    747.6267m      2.9753m  
    3.44000n    747.6267m      2.9753m  
    3.45000n    747.6267m      2.9753m  
    3.46000n    747.6267m      2.9753m  
    3.47000n    747.6267m      2.9753m  
    3.48000n    747.6267m      2.9753m  
    3.49000n    747.6267m      2.9753m  
    3.50000n    747.6267m      2.9753m  
    3.51000n    747.6267m      2.9753m  
    3.52000n    747.6267m      2.9753m  
    3.53000n    747.6267m      2.9753m  
    3.54000n    747.6267m      2.9753m  
    3.55000n    747.6267m      2.9753m  
    3.56000n    747.6267m      2.9753m  
    3.57000n    747.6267m      2.9753m  
    3.58000n    747.6267m      2.9753m  
    3.59000n    747.6267m      2.9753m  
    3.60000n    747.6267m      2.9753m  
    3.61000n    747.6267m      2.9753m  
    3.62000n    747.6267m      2.9753m  
    3.63000n    747.6267m      2.9753m  
    3.64000n    747.6267m      2.9753m  
    3.65000n    747.6267m      2.9753m  
    3.66000n    747.6267m      2.9753m  
    3.67000n    747.6267m      2.9753m  
    3.68000n    747.6267m      2.9753m  
    3.69000n    747.6267m      2.9753m  
    3.70000n    747.6267m      2.9753m  
    3.71000n    747.6267m      2.9753m  
    3.72000n    747.6267m      2.9753m  
    3.73000n    747.6267m      2.9753m  
    3.74000n    747.6267m      2.9753m  
    3.75000n    747.6267m      2.9753m  
    3.76000n    747.6267m      2.9753m  
    3.77000n    747.6267m      2.9753m  
    3.78000n    747.6267m      2.9753m  
    3.79000n    747.6267m      2.9753m  
    3.80000n    747.6267m      2.9753m  
    3.81000n    747.6267m      2.9753m  
    3.82000n    747.6267m      2.9753m  
    3.83000n    747.6267m      2.9753m  
    3.84000n    747.6267m      2.9753m  
    3.85000n    747.6267m      2.9753m  
    3.86000n    747.6267m      2.9753m  
    3.87000n    747.6267m      2.9753m  
    3.88000n    747.6267m      2.9753m  
    3.89000n    747.6267m      2.9753m  
    3.90000n    747.6267m      2.9753m  
    3.91000n    747.6267m      2.9753m  
    3.92000n    747.6267m      2.9753m  
    3.93000n    747.6267m      2.9753m  
    3.94000n    747.6267m      2.9753m  
    3.95000n    747.6267m      2.9753m  
    3.96000n    747.6267m      2.9753m  
    3.97000n    747.6267m      2.9753m  
    3.98000n    747.6267m      2.9753m  
    3.99000n    747.6267m      2.9753m  
    4.00000n    747.6267m      2.9753m  
y

          ***** job concluded
1****** HSPICE -- F-2011.09-SP2 64-BIT (Feb 27 2012) linux ******               
 ******  
 $this uut was automatically generated by:

  ******  job statistics summary tnom=  25.000 temp=  25.000 *****
  
  
 ******  Machine Information  ******
 CPU:
 model name	: Intel(R) Xeon(R) CPU E5-2650 v4 @ 2.20GHz
 cpu MHz	: 2722.242
  
 OS:
 Linux version 3.10.0-693.17.1.el7.x86_64 (mockbuild@x86-041.build.eng.bos.redha
 t.com) (gcc version 4.8.5 20150623 (Red Hat 4.8.5-16) (GCC) ) #1 SMP Sun Jan 14
  10:36:03 EST 2018


  ******  HSPICE Threads Information  ******

  Command Line Threads Count :     1
  Available CPU Count        :    24
  Actual Threads Count       :     1


  ******  Circuit Statistics  ******
  # nodes       =      46 # elements   =      19
  # resistors   =       0 # capacitors =       0 # inductors   =       0
  # mutual_inds =       0 # vccs       =       0 # vcvs        =       0
  # cccs        =       0 # ccvs       =       0 # volt_srcs   =       3
  # curr_srcs   =       0 # diodes     =       0 # bjts        =       0
  # jfets       =       0 # mosfets    =      16 # U elements  =       0
  # T elements  =       0 # W elements =       0 # B elements  =       0
  # S elements  =       0 # P elements =       0 # va device   =       0
  # vector_srcs =       0


  ******  Runtime Statistics (seconds)  ******

  analysis           time    # points   tot. iter  conv.iter
  op point           0.02           1         112
  transient          0.06         401         797         153 rev=        11
  readin             0.01
  errchk             0.00
  setup              0.00
  output             0.00


           peak memory used        135.46 megabytes
           total cpu time            0.09 seconds
           total elapsed time        0.35 seconds
           job started at     18:26:58 09/12/2020
           job ended   at     18:26:58 09/12/2020


 lic: Release hspice token(s) 
