$DATA1 SOURCE='HSPICE' VERSION='F-2011.09-SP2 64-BIT'
.TITLE '$this uut was automatically generated by:'
 trf_delay_001    tfr_delay_001    trf_delay_002    tfr_delay_002     
 trf_delay_101    tfr_delay_101    trf_delay_102    tfr_delay_102     
 trf_delay_011    tfr_delay_011    trf_delay_111    tfr_delay_111     
 inv_avg_power00  peakpower00      inv_avg_power10  peakpower10       
 inv_avg_power01  peakpower01      inv_avg_power11  peakpower11       
 source_power     temper           alter#            
  2.372e-12        2.560e-12        2.173e-12        2.595e-12        
  5.370e-13        4.316e-13       -1.045e-09        1.347e-12        
  2.372e-12        2.526e-12        5.282e-13        4.316e-13        
  6.503e-06        1.504e-03        3.294e-07        4.494e-05        
  3.043e-07        2.373e-05        2.607e-07        2.124e-05        
  1.021e-05         25.0000        1                 
