***** HSPICE -- F-2011.09-SP2 64-BIT (Feb 27 2012) linux ******
 Input File: ptm16lstp.sp
 lic:
 lic: FLEXlm: v10.8
 lic: USER:   iliabautista         HOSTNAME: itn1.rc.usf.edu
 lic: HOSTID:                      PID:      106216
 lic: Using FLEXlm license file:
 lic: 27000@license0.rc.usf.edu
 lic: Checkout 1 hspice
 lic: License/Maintenance for hspice will expire on 18-jul-2021/2019.06
 lic: 1(in_use)/50(total) FLOATING license(s) on SERVER license0.rc.usf.edu
 lic:
 init: begin read circuit files,  cpu clock=  2.00E-02
       option post     =     2.00
 init: end read circuit files,  cpu clock=  2.00E-02 memory=       156 kb
 init: begin check errors,  cpu clock=  2.00E-02
 init: end check errors,  cpu clock=  4.00E-02 memory=       157 kb
 init: begin setup matrix, pivot=     0 cpu clock=  4.00E-02
       establish matrix -- done,  cpu clock=  4.00E-02 memory=       178 kb
       re-order matrix -- done,  cpu clock=  4.00E-02 memory=       174 kb
 init: end setup matrix,  cpu clock=  4.00E-02 memory=       217 kb
 dcop: begin dcop,  cpu clock=  4.00E-02
 dcop: end dcop,  cpu clock=  4.00E-02 memory=       217 kb  tot_iter=       4
 output: ptm16lstp.mt0
 sweep: tran tran0    begin, stop_t=  8.00E-09 #sweeps= 801 cpu clock=  4.00E-02
 tran: time= 1.0038E-09 tot_iter=     103 conv_iter=      26 cpu clock= 5.00E-02
 tran: time= 1.6133E-09 tot_iter=     205 conv_iter=      53 cpu clock= 7.00E-02
 tran: time= 2.4579E-09 tot_iter=     270 conv_iter=      71 cpu clock= 7.00E-02
 tran: time= 3.2437E-09 tot_iter=     352 conv_iter=      91 cpu clock= 8.00E-02
 tran: time= 4.0000E-09 tot_iter=     360 conv_iter=      95 cpu clock= 8.00E-02
 tran: time= 4.9699E-09 tot_iter=     453 conv_iter=     117 cpu clock= 9.00E-02
 tran: time= 5.6142E-09 tot_iter=     523 conv_iter=     137 cpu clock= 1.00E-01
 tran: time= 6.5124E-09 tot_iter=     638 conv_iter=     166 cpu clock= 1.10E-01
 tran: time= 7.2394E-09 tot_iter=     722 conv_iter=     187 cpu clock= 1.20E-01
 tran: time= 8.0000E-09 tot_iter=     728 conv_iter=     190 cpu clock= 1.20E-01
 sweep: tran tran0    end,  cpu clock=  1.20E-01 memory=       217 kb
>info:         ***** hspice job concluded
 lic: Release hspice token(s)
