***** HSPICE -- F-2011.09-SP2 64-BIT (Feb 27 2012) linux ******
 Input File: ptm10hp.sp
 lic:
 lic: FLEXlm: v10.8
 lic: USER:   iliabautista         HOSTNAME: itn1.rc.usf.edu
 lic: HOSTID:                      PID:      106149
 lic: Using FLEXlm license file:
 lic: 27000@license0.rc.usf.edu
 lic: Checkout 1 hspice
 lic: License/Maintenance for hspice will expire on 18-jul-2021/2019.06
 lic: 1(in_use)/50(total) FLOATING license(s) on SERVER license0.rc.usf.edu
 lic:
 init: begin read circuit files,  cpu clock=  2.00E-02
       option post     =     2.00
 init: end read circuit files,  cpu clock=  2.00E-02 memory=       156 kb
 init: begin check errors,  cpu clock=  2.00E-02
 init: end check errors,  cpu clock=  4.00E-02 memory=       157 kb
 init: begin setup matrix, pivot=     0 cpu clock=  4.00E-02
       establish matrix -- done,  cpu clock=  4.00E-02 memory=       178 kb
       re-order matrix -- done,  cpu clock=  4.00E-02 memory=       174 kb
 init: end setup matrix,  cpu clock=  4.00E-02 memory=       217 kb
 dcop: begin dcop,  cpu clock=  4.00E-02
 dcop: end dcop,  cpu clock=  4.00E-02 memory=       217 kb  tot_iter=       5
 output: ptm10hp.mt0
 sweep: tran tran0    begin, stop_t=  8.00E-09 #sweeps= 801 cpu clock=  4.00E-02
 tran: time= 1.0500E-09 tot_iter=     105 conv_iter=      27 cpu clock= 5.00E-02
 tran: time= 1.7767E-09 tot_iter=     213 conv_iter=      52 cpu clock= 7.00E-02
 tran: time= 2.5885E-09 tot_iter=     320 conv_iter=      77 cpu clock= 8.00E-02
 tran: time= 3.2661E-09 tot_iter=     427 conv_iter=     104 cpu clock= 9.00E-02
 tran: time= 4.0000E-09 tot_iter=     433 conv_iter=     107 cpu clock= 9.00E-02
 tran: time= 4.9462E-09 tot_iter=     536 conv_iter=     131 cpu clock= 1.00E-01
 tran: time= 6.0000E-09 tot_iter=     639 conv_iter=     157 cpu clock= 1.10E-01
 tran: time= 6.5094E-09 tot_iter=     743 conv_iter=     181 cpu clock= 1.30E-01
 tran: time= 7.2225E-09 tot_iter=     832 conv_iter=     204 cpu clock= 1.40E-01
 tran: time= 8.0000E-09 tot_iter=     838 conv_iter=     207 cpu clock= 1.40E-01
 sweep: tran tran0    end,  cpu clock=  1.40E-01 memory=       217 kb
>info:         ***** hspice job concluded
 lic: Release hspice token(s)
