***** HSPICE -- F-2011.09-SP2 64-BIT (Feb 27 2012) linux ******
 Input File: ptm14hp.sp
 lic:
 lic: FLEXlm: v10.8
 lic: USER:   iliabautista         HOSTNAME: itn0.rc.usf.edu
 lic: HOSTID:                      PID:      99702
 lic: Using FLEXlm license file:
 lic: 27000@license0.rc.usf.edu
 lic: Checkout 1 hspice
 lic: License/Maintenance for hspice will expire on 18-jul-2021/2019.06
 lic: 1(in_use)/50(total) FLOATING license(s) on SERVER license0.rc.usf.edu
 lic:
 init: begin read circuit files,  cpu clock=  3.00E-02
       option post     =     2.00
 init: end read circuit files,  cpu clock=  4.00E-02 memory=       162 kb
 init: begin check errors,  cpu clock=  4.00E-02
 init: end check errors,  cpu clock=  7.00E-02 memory=       296 kb
 init: begin setup matrix, pivot=     0 cpu clock=  7.00E-02
       establish matrix -- done,  cpu clock=  7.00E-02 memory=       338 kb
       re-order matrix -- done,  cpu clock=  7.00E-02 memory=       330 kb
 init: end setup matrix,  cpu clock=  7.00E-02 memory=       408 kb
 dcop: begin dcop,  cpu clock=  7.00E-02
 dcop: end dcop,  cpu clock=  7.00E-02 memory=       408 kb  tot_iter=       5
 output: ptm14hp.mt0
 sweep: tran tran0    begin, stop_t=  8.00E-09 #sweeps= 801 cpu clock=  7.00E-02
 tran: time= 1.0500E-09 tot_iter=     261 conv_iter=      35 cpu clock= 1.40E-01
 tran: time= 2.0000E-09 tot_iter=     372 conv_iter=      62 cpu clock= 1.50E-01
 tran: time= 2.4955E-09 tot_iter=     521 conv_iter=      96 cpu clock= 1.60E-01
 tran: time= 3.2047E-09 tot_iter=     792 conv_iter=     129 cpu clock= 1.90E-01
 tran: time= 4.0000E-09 tot_iter=     800 conv_iter=     133 cpu clock= 1.90E-01
 tran: time= 5.0500E-09 tot_iter=    1438 conv_iter=     193 cpu clock= 2.70E-01
 tran: time= 5.6845E-09 tot_iter=    1743 conv_iter=     229 cpu clock= 3.00E-01
 tran: time= 6.4912E-09 tot_iter=    2189 conv_iter=     289 cpu clock= 3.40E-01
 tran: time= 7.2490E-09 tot_iter=    2355 conv_iter=     315 cpu clock= 3.60E-01
 tran: time= 8.0000E-09 tot_iter=    2361 conv_iter=     318 cpu clock= 3.60E-01
 sweep: tran tran0    end,  cpu clock=  3.60E-01 memory=       409 kb
>info:         ***** hspice job concluded
 lic: Release hspice token(s)
