***** HSPICE -- F-2011.09-SP2 64-BIT (Feb 27 2012) linux ******
 Input File: ptm14hp.sp
 lic:
 lic: FLEXlm: v10.8
 lic: USER:   iliabautista         HOSTNAME: itn1.rc.usf.edu
 lic: HOSTID:                      PID:      182846
 lic: Using FLEXlm license file:
 lic: 27000@license0.rc.usf.edu
 lic: Checkout 1 hspice
 lic: License/Maintenance for hspice will expire on 18-jul-2021/2019.06
 lic: 1(in_use)/50(total) FLOATING license(s) on SERVER license0.rc.usf.edu
 lic:
 init: begin read circuit files,  cpu clock=  2.00E-02
       option post     =     2.00
 init: end read circuit files,  cpu clock=  2.00E-02 memory=       155 kb
 init: begin check errors,  cpu clock=  2.00E-02
 **warning**  No DC path to ground from node        0:                outin_30
 init: end check errors,  cpu clock=  3.00E-02 memory=       287 kb
 init: begin setup matrix, pivot=     0 cpu clock=  3.00E-02
       establish matrix -- done,  cpu clock=  3.00E-02 memory=       316 kb
       re-order matrix -- done,  cpu clock=  3.00E-02 memory=       311 kb
 init: end setup matrix,  cpu clock=  3.00E-02 memory=       366 kb
 dcop: begin dcop,  cpu clock=  3.00E-02
 dcop: end dcop,  cpu clock=  4.00E-02 memory=       366 kb  tot_iter=     118
 output: ptm14hp.mt0
 sweep: tran tran0    begin, stop_t=  4.00E-09 #sweeps= 401 cpu clock=  5.00E-02
 tran: time= 4.4992E-10 tot_iter=      89 conv_iter=      23 cpu clock= 6.00E-02
 tran: time= 8.4992E-10 tot_iter=      93 conv_iter=      25 cpu clock= 6.00E-02
 tran: time= 1.2555E-09 tot_iter=     213 conv_iter=      57 cpu clock= 6.00E-02
 tran: time= 1.6555E-09 tot_iter=     217 conv_iter=      59 cpu clock= 6.00E-02
 tran: time= 2.0000E-09 tot_iter=     221 conv_iter=      61 cpu clock= 6.00E-02
 tran: time= 2.5168E-09 tot_iter=     599 conv_iter=     121 cpu clock= 9.00E-02
 tran: time= 2.9168E-09 tot_iter=     603 conv_iter=     123 cpu clock= 9.00E-02
 tran: time= 3.2792E-09 tot_iter=     910 conv_iter=     158 cpu clock= 1.10E-01
 tran: time= 3.6756E-09 tot_iter=     915 conv_iter=     160 cpu clock= 1.10E-01
 tran: time= 4.0000E-09 tot_iter=     920 conv_iter=     162 cpu clock= 1.10E-01
 sweep: tran tran0    end,  cpu clock=  1.10E-01 memory=       367 kb
>info:         ***** hspice job concluded
 lic: Release hspice token(s)
