***** HSPICE -- F-2011.09-SP2 64-BIT (Feb 27 2012) linux ******
 Input File: ptm16lstp.sp
 lic:
 lic: FLEXlm: v10.8
 lic: USER:   iliabautista         HOSTNAME: itn0.rc.usf.edu
 lic: HOSTID:                      PID:      99732
 lic: Using FLEXlm license file:
 lic: 27000@license0.rc.usf.edu
 lic: Checkout 1 hspice
 lic: License/Maintenance for hspice will expire on 18-jul-2021/2019.06
 lic: 1(in_use)/50(total) FLOATING license(s) on SERVER license0.rc.usf.edu
 lic:
 init: begin read circuit files,  cpu clock=  3.00E-02
       option post     =     2.00
 init: end read circuit files,  cpu clock=  3.00E-02 memory=       162 kb
 init: begin check errors,  cpu clock=  3.00E-02
 init: end check errors,  cpu clock=  6.00E-02 memory=       296 kb
 init: begin setup matrix, pivot=     0 cpu clock=  6.00E-02
       establish matrix -- done,  cpu clock=  6.00E-02 memory=       338 kb
       re-order matrix -- done,  cpu clock=  6.00E-02 memory=       330 kb
 init: end setup matrix,  cpu clock=  6.00E-02 memory=       408 kb
 dcop: begin dcop,  cpu clock=  6.00E-02
 dcop: end dcop,  cpu clock=  6.00E-02 memory=       408 kb  tot_iter=       4
 output: ptm16lstp.mt0
 sweep: tran tran0    begin, stop_t=  8.00E-09 #sweeps= 801 cpu clock=  6.00E-02
 tran: time= 8.1538E-10 tot_iter=      88 conv_iter=      24 cpu clock= 8.00E-02
 tran: time= 1.7006E-09 tot_iter=     193 conv_iter=      50 cpu clock= 9.00E-02
 tran: time= 2.5595E-09 tot_iter=     319 conv_iter=      79 cpu clock= 1.00E-01
 tran: time= 3.2974E-09 tot_iter=     392 conv_iter=      99 cpu clock= 1.00E-01
 tran: time= 4.0000E-09 tot_iter=     398 conv_iter=     102 cpu clock= 1.00E-01
 tran: time= 5.0500E-09 tot_iter=     544 conv_iter=     139 cpu clock= 1.30E-01
 tran: time= 5.7404E-09 tot_iter=     651 conv_iter=     163 cpu clock= 1.40E-01
 tran: time= 6.5296E-09 tot_iter=     834 conv_iter=     197 cpu clock= 1.50E-01
 tran: time= 7.3349E-09 tot_iter=     937 conv_iter=     223 cpu clock= 1.60E-01
 tran: time= 8.0000E-09 tot_iter=     941 conv_iter=     225 cpu clock= 1.60E-01
 sweep: tran tran0    end,  cpu clock=  1.60E-01 memory=       409 kb
>info:         ***** hspice job concluded
 lic: Release hspice token(s)
