***** HSPICE -- F-2011.09-SP2 64-BIT (Feb 27 2012) linux ******
 Input File: ptm16hp.sp
 lic:
 lic: FLEXlm: v10.8
 lic: USER:   iliabautista         HOSTNAME: itn0.rc.usf.edu
 lic: HOSTID:                      PID:      99540
 lic: Using FLEXlm license file:
 lic: 27000@license0.rc.usf.edu
 lic: Checkout 1 hspice
 lic: License/Maintenance for hspice will expire on 18-jul-2021/2019.06
 lic: 1(in_use)/50(total) FLOATING license(s) on SERVER license0.rc.usf.edu
 lic:
 init: begin read circuit files,  cpu clock=  3.00E-02
       option post     =     2.00
 init: end read circuit files,  cpu clock=  3.00E-02 memory=       162 kb
 init: begin check errors,  cpu clock=  3.00E-02
 init: end check errors,  cpu clock=  7.00E-02 memory=       296 kb
 init: begin setup matrix, pivot=     0 cpu clock=  7.00E-02
       establish matrix -- done,  cpu clock=  7.00E-02 memory=       338 kb
       re-order matrix -- done,  cpu clock=  7.00E-02 memory=       330 kb
 init: end setup matrix,  cpu clock=  7.00E-02 memory=       408 kb
 dcop: begin dcop,  cpu clock=  7.00E-02
 dcop: end dcop,  cpu clock=  7.00E-02 memory=       408 kb  tot_iter=       5
 output: ptm16hp.mt0
 sweep: tran tran0    begin, stop_t=  8.00E-09 #sweeps= 801 cpu clock=  7.00E-02
 tran: time= 8.5746E-10 tot_iter=     293 conv_iter=      34 cpu clock= 1.50E-01
 tran: time= 1.6283E-09 tot_iter=     850 conv_iter=      97 cpu clock= 2.10E-01
 tran: time= 2.4452E-09 tot_iter=    1371 conv_iter=     154 cpu clock= 2.60E-01
 tran: time= 3.2717E-09 tot_iter=    1474 conv_iter=     180 cpu clock= 2.70E-01
 tran: time= 4.0000E-09 tot_iter=    1480 conv_iter=     183 cpu clock= 2.70E-01
 tran: time= 5.0500E-09 tot_iter=    2045 conv_iter=     240 cpu clock= 3.80E-01
 tran: time= 5.6016E-09 tot_iter=    2146 conv_iter=     264 cpu clock= 3.90E-01
 tran: time= 6.6343E-09 tot_iter=    2472 conv_iter=     314 cpu clock= 4.30E-01
 tran: time= 7.2431E-09 tot_iter=    2543 conv_iter=     333 cpu clock= 4.40E-01
 tran: time= 8.0000E-09 tot_iter=    2549 conv_iter=     336 cpu clock= 4.40E-01
 sweep: tran tran0    end,  cpu clock=  4.40E-01 memory=       409 kb
>info:         ***** hspice job concluded
 lic: Release hspice token(s)
