$DATA1 SOURCE='HSPICE' VERSION='F-2011.09-SP2 64-BIT'
.TITLE '$this uut was automatically generated by:'
 power_avg        avg_power        inv_avg_power    peakpower         
 trf_delay_1      tfr_delay_1      trf_delay_2      tfr_delay_2       
 temper           alter#            
  2.896e-06       -2.429e-09        3.863e-07        2.199e-05        
  2.225e-12        2.474e-12        2.003e-12        2.506e-12        
   25.0000        1                 
