$DATA1 SOURCE='HSPICE' VERSION='F-2011.09-SP2 64-BIT'
.TITLE '$this uut was automatically generated by:'
 inv_avg_power0   peakpower0       trf_delay_01     tfr_delay_01      
 trf_delay_02     tfr_delay_02     trf_delay_03     tfr_delay_03      
 trf_delay_04     tfr_delay_04     inv_avg_power1   peakpower1        
 trf_delay_11     tfr_delay_11     trf_delay_12     tfr_delay_12      
 inv_avg_power2   peakpower2       trf_delay_21     tfr_delay_21      
 power_avg        avg_power        temper           alter#            
  1.784e-07        2.345e-05        6.722e-12        6.768e-12        
  3.404e-12        7.773e-12        6.452e-12        7.142e-12        
  6.067e-12        6.791e-12        9.417e-08        2.351e-05        
  6.722e-12        7.173e-12        6.452e-12        7.424e-12        
  4.594e-08        2.345e-05        6.722e-12        6.098e-12        
  6.061e-07       -5.182e-07         25.0000        1                 
