$DATA1 SOURCE='HSPICE' VERSION='F-2011.09-SP2 64-BIT'
.TITLE '$this uut was automatically generated by:'
 power_avg        avg_power        inv_avg_power    peakpower         
 trf_delay_1      tfr_delay_1      trf_delay_2      tfr_delay_2       
 temper           alter#            
  2.063e-06       -8.301e-09          failed           failed         
  4.906e-12        5.104e-12        5.020e-12        5.068e-12        
   25.0000        1                 
