***** HSPICE -- F-2011.09-SP2 64-BIT (Feb 27 2012) linux ******
 Input File: ptm14hp.sp
 lic:
 lic: FLEXlm: v10.8
 lic: USER:   iliabautista         HOSTNAME: itn2.rc.usf.edu
 lic: HOSTID:                      PID:      123853
 lic: Using FLEXlm license file:
 lic: 27000@license0.rc.usf.edu
 lic: Checkout 1 hspice
 lic: License/Maintenance for hspice will expire on 18-jul-2021/2019.06
 lic: 1(in_use)/50(total) FLOATING license(s) on SERVER license0.rc.usf.edu
 lic:
 init: begin read circuit files,  cpu clock=  3.00E-02
       option post     =     2.00
 init: end read circuit files,  cpu clock=  3.00E-02 memory=       154 kb
 init: begin check errors,  cpu clock=  3.00E-02
 init: end check errors,  cpu clock=  4.00E-02 memory=       154 kb
 init: begin setup matrix, pivot=     0 cpu clock=  4.00E-02
       establish matrix -- done,  cpu clock=  4.00E-02 memory=       165 kb
       re-order matrix -- done,  cpu clock=  4.00E-02 memory=       163 kb
 init: end setup matrix,  cpu clock=  4.00E-02 memory=       189 kb
 dcop: begin dcop,  cpu clock=  4.00E-02
 dcop: end dcop,  cpu clock=  4.00E-02 memory=       189 kb  tot_iter=       5
 output: ptm14hp.mt0
 sweep: tran tran0    begin, stop_t=  4.00E-09 #sweeps= 401 cpu clock=  4.00E-02
 tran: time= 5.7638E-10 tot_iter=     195 conv_iter=      49 cpu clock= 5.00E-02
 tran: time= 9.7638E-10 tot_iter=     199 conv_iter=      51 cpu clock= 5.00E-02
 tran: time= 1.2150E-09 tot_iter=     362 conv_iter=      89 cpu clock= 6.00E-02
 tran: time= 1.6266E-09 tot_iter=     371 conv_iter=      93 cpu clock= 6.00E-02
 tran: time= 2.0000E-09 tot_iter=     375 conv_iter=      95 cpu clock= 6.00E-02
 tran: time= 2.5593E-09 tot_iter=     550 conv_iter=     139 cpu clock= 7.00E-02
 tran: time= 2.9593E-09 tot_iter=     554 conv_iter=     141 cpu clock= 7.00E-02
 tran: time= 3.2028E-09 tot_iter=     720 conv_iter=     180 cpu clock= 8.00E-02
 tran: time= 3.7448E-09 tot_iter=     732 conv_iter=     185 cpu clock= 8.00E-02
 tran: time= 4.0000E-09 tot_iter=     736 conv_iter=     187 cpu clock= 8.00E-02
 sweep: tran tran0    end,  cpu clock=  8.00E-02 memory=       189 kb
>info:         ***** hspice job concluded
 lic: Release hspice token(s)
