***** HSPICE -- F-2011.09-SP2 64-BIT (Feb 27 2012) linux ******
 Input File: ptm16lstp.sp
 lic:
 lic: FLEXlm: v10.8
 lic: USER:   iliabautista         HOSTNAME: itn3.rc.usf.edu
 lic: HOSTID:                      PID:      20972
 lic: Using FLEXlm license file:
 lic: 27000@license0.rc.usf.edu
 lic: Checkout 1 hspice
 lic: License/Maintenance for hspice will expire on 18-jul-2021/2019.06
 lic: 1(in_use)/50(total) FLOATING license(s) on SERVER license0.rc.usf.edu
 lic:
 init: begin read circuit files,  cpu clock=  2.00E-02
       option post     =     2.00
 init: end read circuit files,  cpu clock=  2.00E-02 memory=       153 kb
 init: begin check errors,  cpu clock=  2.00E-02
 init: end check errors,  cpu clock=  3.00E-02 memory=       153 kb
 init: begin setup matrix, pivot=     0 cpu clock=  3.00E-02
       establish matrix -- done,  cpu clock=  3.00E-02 memory=       157 kb
       re-order matrix -- done,  cpu clock=  3.00E-02 memory=       156 kb
 init: end setup matrix,  cpu clock=  3.00E-02 memory=       171 kb
 dcop: begin dcop,  cpu clock=  3.00E-02
 dcop: end dcop,  cpu clock=  3.00E-02 memory=       171 kb  tot_iter=       4
 output: ptm16lstp.tr0
 sweep: tran tran0    begin, stop_t=  4.00E-09 #sweeps= 401 cpu clock=  3.00E-02
 tran: time= 4.1183E-10 tot_iter=      78 conv_iter=      26 cpu clock= 3.00E-02
 tran: time= 8.1183E-10 tot_iter=      82 conv_iter=      28 cpu clock= 3.00E-02
 tran: time= 1.2103E-09 tot_iter=     138 conv_iter=      50 cpu clock= 3.00E-02
 tran: time= 1.7910E-09 tot_iter=     173 conv_iter=      61 cpu clock= 3.00E-02
 tran: time= 2.1910E-09 tot_iter=     177 conv_iter=      63 cpu clock= 3.00E-02
 tran: time= 2.5910E-09 tot_iter=     181 conv_iter=      65 cpu clock= 3.00E-02
 tran: time= 2.9910E-09 tot_iter=     185 conv_iter=      67 cpu clock= 3.00E-02
 tran: time= 3.3910E-09 tot_iter=     189 conv_iter=      69 cpu clock= 3.00E-02
 tran: time= 3.7910E-09 tot_iter=     193 conv_iter=      71 cpu clock= 3.00E-02
 tran: time= 4.0000E-09 tot_iter=     195 conv_iter=      72 cpu clock= 3.00E-02
 sweep: tran tran0    end,  cpu clock=  3.00E-02 memory=       171 kb
>info:         ***** hspice job concluded
 lic: Release hspice token(s)
