$DATA1 SOURCE='HSPICE' VERSION='F-2011.09-SP2 64-BIT'
.TITLE '$this uut was automatically generated by:'
 power_avg        avg_power        inv_avg_power    peakpower         
 trf_delay_1      tfr_delay_1      trf_delay_2      tfr_delay_2       
 temper           alter#            
  2.810e-06       -4.978e-09        2.862e-07        2.413e-05        
  2.832e-12        3.332e-12        2.798e-12        3.261e-12        
   25.0000        1                 
