***** HSPICE -- F-2011.09-SP2 64-BIT (Feb 27 2012) linux ******
 Input File: ptm14lstp.sp
 lic:
 lic: FLEXlm: v10.8
 lic: USER:   iliabautista         HOSTNAME: itn2.rc.usf.edu
 lic: HOSTID:                      PID:      123905
 lic: Using FLEXlm license file:
 lic: 27000@license0.rc.usf.edu
 lic: Checkout 1 hspice
 lic: License/Maintenance for hspice will expire on 18-jul-2021/2019.06
 lic: 1(in_use)/50(total) FLOATING license(s) on SERVER license0.rc.usf.edu
 lic:
 init: begin read circuit files,  cpu clock=  2.00E-02
       option post     =     2.00
 init: end read circuit files,  cpu clock=  2.00E-02 memory=       154 kb
 init: begin check errors,  cpu clock=  2.00E-02
 init: end check errors,  cpu clock=  3.00E-02 memory=       154 kb
 init: begin setup matrix, pivot=     0 cpu clock=  3.00E-02
       establish matrix -- done,  cpu clock=  3.00E-02 memory=       165 kb
       re-order matrix -- done,  cpu clock=  3.00E-02 memory=       163 kb
 init: end setup matrix,  cpu clock=  3.00E-02 memory=       189 kb
 dcop: begin dcop,  cpu clock=  3.00E-02
 dcop: end dcop,  cpu clock=  3.00E-02 memory=       189 kb  tot_iter=       4
 output: ptm14lstp.mt0
 sweep: tran tran0    begin, stop_t=  4.00E-09 #sweeps= 401 cpu clock=  3.00E-02
 tran: time= 5.3925E-10 tot_iter=     158 conv_iter=      42 cpu clock= 4.00E-02
 tran: time= 9.3925E-10 tot_iter=     162 conv_iter=      44 cpu clock= 4.00E-02
 tran: time= 1.2346E-09 tot_iter=     333 conv_iter=      90 cpu clock= 5.00E-02
 tran: time= 1.6630E-09 tot_iter=     373 conv_iter=     100 cpu clock= 5.00E-02
 tran: time= 2.0000E-09 tot_iter=     377 conv_iter=     102 cpu clock= 5.00E-02
 tran: time= 2.5441E-09 tot_iter=     551 conv_iter=     150 cpu clock= 6.00E-02
 tran: time= 2.9441E-09 tot_iter=     555 conv_iter=     152 cpu clock= 6.00E-02
 tran: time= 3.2334E-09 tot_iter=     647 conv_iter=     180 cpu clock= 7.00E-02
 tran: time= 3.6978E-09 tot_iter=     686 conv_iter=     190 cpu clock= 7.00E-02
 tran: time= 4.0000E-09 tot_iter=     690 conv_iter=     192 cpu clock= 7.00E-02
 sweep: tran tran0    end,  cpu clock=  7.00E-02 memory=       189 kb
>info:         ***** hspice job concluded
 lic: Release hspice token(s)
