 ****** HSPICE -- F-2011.09-SP2 64-BIT (Feb 27 2012) linux ******               
  Copyright (C) 2011 Synopsys, Inc. All Rights Reserved.                        
  Unpublished-rights reserved under US copyright laws.
  This program is protected by law and is subject to the
  terms and conditions of the license agreement from Synopsys.
  Use of this program is your acceptance to be bound by the
  license agreement. HSPICE is the trademark of Synopsys, Inc.
  Input File: ptm16hp.sp                                                        
  Command line options: ptm16hp.sp
 lic:  
 lic: FLEXlm: v10.8 
 lic: USER:   iliabautista         HOSTNAME: itn3.rc.usf.edu 
 lic: HOSTID:                      PID:      5042 
 lic: Using FLEXlm license file: 
 lic: 27000@license0.rc.usf.edu 
 lic: Checkout 1 hspice 
 lic: License/Maintenance for hspice will expire on 18-jul-2021/2019.06 
 lic: 1(in_use)/50(total) FLOATING license(s) on SERVER license0.rc.usf.edu 
 lic:   
  **warning** (../modelfiles/hp/16nfet.pm:4) Model nfet device geometries will not be checked against the limits set by lmin, lmax, nfinmin and nfinmax. To enable this check, add a period(.) to the model name(i.e. enable model selector).
1****** HSPICE -- F-2011.09-SP2 64-BIT (Feb 27 2012) linux ******               
 ******  
 $this uut was automatically generated by:

  ******  circuit name directory
 circuit number to circuit name directory
   number circuitname                     definition         multiplier
        0 main circuit
        1 xinput_0.                       inverter           1.00 
        2 xinput_1.                       inverter           1.00 
        3 xuut_grid.                      uut_grid           1.00 
        4 xoutput_00.                     inverter           1.00 
        5 xoutput_10.                     inverter           1.00 
        6 xinput_0.xpfet.                 pfet               1.00 
        7 xinput_0.xnfet.                 nfet               1.00 
        8 xinput_1.xpfet.                 pfet               1.00 
        9 xinput_1.xnfet.                 nfet               1.00 
       10 xuut_grid.xinverter00.          inverter           1.00 
       11 xuut_grid.xinverter10.          inverter           1.00 
       12 xuut_grid.xinverter01.          inverter           1.00 
       13 xuut_grid.xinverter11.          inverter           1.00 
       14 xoutput_00.xpfet.               pfet               1.00 
       15 xoutput_00.xnfet.               nfet               1.00 
       16 xoutput_10.xpfet.               pfet               1.00 
       17 xoutput_10.xnfet.               nfet               1.00 
       18 xuut_grid.xinverter00.xpfet.    pfet               1.00 
       19 xuut_grid.xinverter00.xnfet.    nfet               1.00 
       20 xuut_grid.xinverter10.xpfet.    pfet               1.00 
       21 xuut_grid.xinverter10.xnfet.    nfet               1.00 
       22 xuut_grid.xinverter01.xpfet.    pfet               1.00 
       23 xuut_grid.xinverter01.xnfet.    nfet               1.00 
       24 xuut_grid.xinverter11.xpfet.    pfet               1.00 
       25 xuut_grid.xinverter11.xnfet.    nfet               1.00 
1****** HSPICE -- F-2011.09-SP2 64-BIT (Feb 27 2012) linux ******               
 ******  
 $this uut was automatically generated by:

  ******  mos   model parameters tnom=  25.000 temp=  25.000 *****
 Model Name: pfet 
 BSIM-MG BULK Model(Level72)
   VERSION = 105.03  
   DEVTYPE = -1 
   BULKMOD = 1  
   COREMOD = 0 
   GEOMOD = 1 
   RDSMOD = 1 
   IGCMOD = 1 
   IGBMOD = 1 
   GIDLMOD = 0 
   IIMOD = 0 
   NQSMOD = 0 
   SHMOD = 0 
   RGATEMOD = 0 
   RGEOMOD = 1 
   CGEOMOD = 2 
   CAPMOD = 0 
   LINT =  1e-09 m
   LL =      0 m^(LLN+1)
   LLN =      1 
   DLC =      0 m
   DLBIN =      0 
   LLC =      0 m^(LLN+1)
   EOT =  8e-10 m
   TOXP = 1.35e-09 m
   EOTBOX = 1.4e-07 m
   HFIN = 2.6e-08 m
   FECH =      1 
   DELTAW =      0 m
   FECHCV =      1 
   DELTAWCV =      0 m
   NBODY =  1e+23 m^-3
   NSD =  3e+26 m^-3
   PHIG =  4.764 eV
   EPSROX =    3.9 
   EPSRSUB =   11.9 
   EASUB =   4.05 eV
   NI0SUB = 1.1e+16 m^-3
   BG0SUB =   1.12 eV
   NC0SUB = 2.86e+25 m^-3
   NGATE =      0 m^-3
   CIT = 1.3e-05 F/m^2
   CDSC =  0.018 F/m^2
   CDSCD =  0.007 F/m^2
   CDSCDR =  0.007 
   DVT0 =   0.01 
   DVT1 =   0.69 
   PHIN =   0.05 V
   ETA0 =  0.778 
   ETA0R =  0.778 
   DSUB =    0.9 
   K1RSCE =      0 V^1/2
   LPE0 =  5e-09 m
   DVTSHIFT =      0 
   QMFACTOR =      0 
   QMTCENIV =      0 
   QMTCENCV =      0 
   AQMTCEN =      0 
   BQMTCEN = 1.2e-08 
   ETAQM =   0.54 
   QM0 = 0.001143 
   PQM =   0.66 
   QM0ACC =  0.001 
   PQMACC =   0.66 
   VSAT = 8.8e+04 
   AVSAT =      0 
   BVSAT =  1e-07 
   VSAT1 = 8.8e+04 
   AVSAT1 =      0 
   BVSAT1 =  1e-07 
   DELTAVSAT =      1 
   KSATIV =    0.8 
   MEXP =      3 
   AMEXP =      0 
   BMEXP =      1 
   PTWG =      0 
   APTWG =      0 
   BPTWG =  1e-07 
   AT = -0.00156 
   TMEXP =      0 
   PTWGT =  0.004 
   U0 =   0.03 
   ETAMOB =      2 
   UP =      0 
   LPA =      1 
   UA =    0.3 
   AUA =      0 
   BUA =  1e-07 
   EU =    1.8 
   AEU =      0 
   BEU =  1e-07 
   UD =      0 
   AUD =      0 
   BUD =  5e-08 
   UCS =      0 
   UTE =      0 
   UTL = -0.0015 
   UA1 = 0.001032 
   UD1 =      0 
   UCSTE = -0.00478 
   RDSWMIN =      0 
   RDSW =    100 
   ARDSW =      0 
   BRDSW =  1e-07 
   RSWMIN =      0 
   RSW =      0 
   ARSW =      0 
   BRSW =  1e-07 
   RDWMIN =      0 
   RDW =      0 
   ARDW =      0 
   BRDW =  1e-07 
   PRWG =      0 
   WR =      1 
   PRT =  0.001 
   PDIBL1 =    1.3 
   PDIBL2 = 0.0002 
   DROUT =   1.06 
   PVAG =      1 
   PCLM =    0.2 
   APCLM =      0 
   BPCLM =  1e-07 
   PCLMG =      0 
   VASAT =    0.6 
   PCLMCV =  0.013 
   PCLMGCV =      0 
   VASATCV =    0.2 
   RGEXT =      0 ohm
   RGFIN =  0.001 ohm
   RSHS =      0 ohm
   RSHD =      0 ohm
   HEPI = 9.5e-09 m
   TSILI =  9e-09 m
   RHOC =  2e-12 ohm/m^2
   RHORSD =      1 ohm/m
   RHOEXT =      1 ohm/m
   CRATIO =    0.5 
   DELTAPRSD =      0 m
   SDTERM = 0 
   LSP =  4e-09 m
   LDG =  3e-09 m
   EPSRSP =    3.9 
   TGATE =  9e-09 m
   TMASK =      0 m
   ASILIEND =      0 m^2
   ARSDEND =      0 m^2
   PRSDEND =      0 m
   NSDE =  3e+25 m^-3
   RGEOA =      1 
   RGEOB =      0 m^-1
   RGEOC =      0 m^-1
   RGEOD =      0 m^-1
   RGEOE =      0 m^-1
   CGEOA =      1 
   CGEOB =      0 m^-1
   CGEOC =      0 m^-1
   CGEOD =      0 m^-1
   CGEOE =      1 
   AIGBINV = 0.0111 (Fs^2/g)^0.5m^-1
   BIGBINV =   0.03 (Fs^2/g)^0.5m^-1
   CIGBINV =  0.006 V^-1
   EIGBINV =    1.1 V
   NIGBINV =    1.2 
   AIGBACC = 0.0149 
   BIGBACC = 0.000949 
   CIGBACC =  0.075 
   NIGBACC =      3 
   AIGC = 0.0136 (Fs^2/g)^0.5m^-1
   BIGC = 0.00171 (Fs^2/g)^0.5m^-1V^-1
   CIGC =  0.075 V^-1
   NIGC =      1 
   DLCIGS =      0 m
   AIGS = 0.0136 (Fs^2/g)^0.5m^-1
   BIGS = 0.00171 (Fs^2/g)^0.5m^-1V^-1
   CIGS =  0.075 V^-1
   DLCIGD =      0 m
   AIGD = 0.0136 (Fs^2/g)^0.5m^-1
   BIGD = 0.00171 (Fs^2/g)^0.5m^-1V^-1
   CIGD =  0.075 V^-1
   POXEDGE =      1 
   AGIDL = 5.729e-12 ohm^-1
   BGIDL =  3e+08 V/m
   EGIDL =    0.1 V
   AGISL = 5.729e-12 ohm^-1
   BGISL =  3e+08 V/m
   EGISL =    0.1 V
   ALPHA0 =      0 mV^-1
   ALPHA1 =      0 V^-1
   BETA0 =     30 V^-1
   ALPHAII =      0 
   BETAII0 =      0 V^-1
   BETAII1 =      0 
   BETAII2 =    0.1 V
   ESATII =  1e+07 V/m
   LII =  5e-10 V/m
   SII0 =    0.5 V^-1
   SII1 =    0.1 
   SII2 =      0 V
   SIID =      0 V
   EOTACC =  8e-10 m
   DELVFBACC =      0 V
   CFS = 2.56e-11 F/m
   CFD = 2.65e-11 F/m
   COVS = 2.5e-11 F/m
   COVD = 2.5e-11 F/m
   CGSO =      0 F/m
   CGDO =      0 F/m
   CGSL =      0 F/m
   CGDL =      0 F/m
   CKAPPAS =    0.6 V
   CKAPPAD =    0.6 V
   CGBO =      0 F/m
   CGBL =      0 F/m
   CKAPPAB =    0.6 V
   CSDESW =      0 F/m
   CJS = 0.0005 F/m^2
   CJD = 0.0005 F/m^2
   CJSWS =  5e-10 F/m
   CJSWD =  5e-10 F/m
   CJSWGS =      0 F/m
   CJSWGD =      0 F/m
   PBS =      1 V
   PBD =      1 V
   PBSWS =      1 V
   PBSWD =      1 V
   PBSWGS =      1 V
   PBSWGD =      1 V
   MJS, =    0.5 
   MJD =    0.5 
   MJSWS =   0.33 
   MJSWD =   0.33 
   MJSWGS =   0.33 
   MJSWGD =   0.33 
   SJS =      0 
   SJD =      0 
   SJSWS =      0 
   SJSWD =      0 
   SJSWGS =      0 
   SJSWGD =      0 
   MJS2 =  0.125 
   MJD2 =  0.125 
   MJSWS2 =   0.33 
   MJSWD2 =   0.33 
   MJSWGS2 =   0.33 
   MJSWGD2 =   0.33 
   JSS = 0.0001 A/m^2
   JSD = 0.0001 A/m^2
   JSWS =      0 A/m
   JSWD =      0 A/m
   JSWGS =      0 A/m
   JSWGD =      0 A/m
   NJS =      1 
   NJD =      1 
   IJTHSFWD =    0.1 A
   IJTHDFWD =    0.1 A
   IJTHSREV =    0.1 A
   IJTHDREV =    0.1 A
   BVS =     10 V
   BVD =     10 V
   XJBVS =      1 
   XJBVD =      1 
   JTSS =      0 A/m^2
   JTSD =      0 A/m^2
   JTSSWS =      0 A/m
   JTSSWD =      0 A/m
   JTSSWGS =      0 A/m
   JTSSWGD =      0 A/m
   JTWEFF =      0 m
   NJTS =     20 
   NJTSD =     20 
   NJTSSW =     20 
   NJTSSWD =     20 
   NJTSSWG =     20 
   NJTSSWGD =     20 
   VTSS =     10 V
   VTSD =     10 V
   VTSSWS =     10 V
   VTSSWD =     10 V
   VTSSWGS =     10 V
   VTSSWGD =     10 V
   LINTIGEN =      0 m
   NTGEN =      1 
   AIGEN =      0 m^-3V^-1
   BIGEN =      0 m^-3V^-3
   XRCRG1 =     12 
   XRCRG2 =      1 
   NSEG = 5 
   EF =      1 
   EM = 4.1e+07 V/m
   NOIA = 6.25e+39 eV^-1s^1-EFm^-3
   NOIB = 3.125e+24 eV^-1s^1-EFm^-1
   NOIC = 8.75e+07 eV^-1s^1-EFm
   NTNOI =      1 
   TNOM =  300.1 K
   TBGASUB = 0.000702 eV/K
   TBGBSUB =   1108 K
   KT1 =      0 V
   KT1L =      0 Vm
   IIT =   -0.5 
   TII =      0 
   TGIDL = -0.0003 K^-1
   IGT =    2.5 
   TCJ =      0 K^-1
   TCJSW =      0 K^-1
   TCJSWG =      0 K^-1
   TPB =      0 K^-1
   TPBSW =      0 K^-1
   TPBSWG =      0 K^-1
   XTIS =      3 
   XTID =      3 
   XTSS =   0.02 
   XTSD =   0.02 
   XTSSWS =   0.02 
   XTSSWD =   0.02 
   XTSSWGS =   0.02 
   XTSSWGD =   0.02 
   TNJTS =      0 
   TNJTSD =      0 
   TNJTSSW =      0 
   TNJTSSWD =      0 
   TNJTSSWG =      0 
   TNJTSSWGD =      0 
   RTH0 =   0.01 ohm
   CTH0 =  1e-05 F
   WTH0 =      0 m
   LNBODY =      0 
   NNBODY =      0 
   PNBODY =      0 
   LPHIG =      0 
   NPHIG =      0 
   PPHIG =      0 
   LNGATE =      0 
   NNGATE =      0 
   PNGATE =      0 
   LCIT =      0 
   NCIT =      0 
   PCIT =      0 
   LCDSC =      0 
   NCDSC =      0 
   PCDSC =      0 
   LCDSCD =      0 
   NCDSCD =      0 
   PCDSCD =      0 
   LCDSCDR =      0 
   NCDSCDR =      0 
   PCDSCDR =      0 
   LDVT0 =      0 
   NDVT0 =      0 
   PDVT0 =      0 
   LDVT1 =      0 
   NDVT1 =      0 
   PDVT1 =      0 
   LPHIN =      0 
   NPHIN =      0 
   PPHIN =      0 
   LETA0 =      0 
   NETA0 =      0 
   PETA0 =      0 
   LETA0R =      0 
   NETA0R =      0 
   PETA0R =      0 
   LDSUB =      0 
   NDSUB =      0 
   PDSUB =      0 
   LK1RSCE =      0 
   NK1RSCE =      0 
   PK1RSCE =      0 
   LLPE0 =      0 
   NLPE0 =      0 
   PLPE0 =      0 
   LQMFACTOR =      0 
   NQMFACTOR =      0 
   PQMFACTOR =      0 
   LQMTCENIV =      0 
   NQMTCENIV =      0 
   PQMTCENIV =      0 
   LQMTCENCV =      0 
   NQMTCENCV =      0 
   PQMTCENCV =      0 
   LVSAT =      0 
   NVSAT =      0 
   PVSAT =      0 
   LKSATIV =      0 
   NKSATIV =      0 
   PKSATIV =      0 
   LMEXP =      0 
   NMEXP =      0 
   PMEXP =      0 
   LPTWG =      0 
   NPTWG =      0 
   PPTWG =      0 
   LTHETASAT =      0 
   NTHETASAT =      0 
   PTHETASAT =      0 
   LU0 =      0 
   NU0 =      0 
   PU0 =      0 
   LUP =      0 
   NUP =      0 
   PUP =      0 
   LUA =      0 
   NUA =      0 
   PUA =      0 
   LEU =      0 
   NEU =      0 
   PEU =      0 
   LUD =      0 
   NUD =      0 
   PUD =      0 
   LUCS =      0 
   NUCS =      0 
   PUCS =      0 
   LPCLM =      0 
   NPCLM =      0 
   PPCLM =      0 
   LPCLMCV =      0 
   NPCLMCV =      0 
   PPCLMCV =      0 
   LRDSW =      0 
   NRDSW =      0 
   PRDSW =      0 
   LRSW =      0 
   NRSW =      0 
   PRSW =      0 
   LRDW =      0 
   NRDW =      0 
   PRDW =      0 
   LPRWG =      0 
   NPRWG =      0 
   PPRWG =      0 
   LWR =      0 
   NWR =      0 
   PWR =      0 
   LPDIBL1 =      0 
   NPDIBL1 =      0 
   PPDIBL1 =      0 
   LPDIBL2 =      0 
   NPDIBL2 =      0 
   PPDIBL2 =      0 
   LDROUT =      0 
   NDROUT =      0 
   PDROUT =      0 
   LPVAG =      0 
   NPVAG =      0 
   PPVAG =      0 
   LAIGBINV =      0 
   NAIGBINV =      0 
   PAIGBINV =      0 
   LBIGBINV =      0 
   NBIGBINV =      0 
   PBIGBINV =      0 
   LCIGBINV =      0 
   NCIGBINV =      0 
   PCIGBINV =      0 
   LEIGBINV =      0 
   NEIGBINV =      0 
   PEIGBINV =      0 
   LNIGBINV =      0 
   NNIGBINV =      0 
   PNIGBINV =      0 
   LAIGC =      0 
   NAIGC =      0 
   PAIGC =      0 
   LBIGC =      0 
   NBIGC =      0 
   PBIGC =      0 
   LCIGC =      0 
   NCIGC =      0 
   PCIGC =      0 
   LNIGC =      0 
   NNIGC =      0 
   PNIGC =      0 
   LAIGS =      0 
   NAIGS =      0 
   PAIGS =      0 
   LBIGS =      0 
   NBIGS =      0 
   PBIGS =      0 
   LCIGS =      0 
   NCIGS =      0 
   PCIGS =      0 
   LAIGD =      0 
   NAIGD =      0 
   PAIGD =      0 
   LBIGD =      0 
   NBIGD =      0 
   PBIGD =      0 
   LCIGD =      0 
   NCIGD =      0 
   PCIGD =      0 
   LPOXEDGE =      0 
   NPOXEDGE =      0 
   PPOXEDGE =      0 
   LAGIDL =      0 
   NAGIDL =      0 
   PAGIDL =      0 
   LBGIDL =      0 
   NBGIDL =      0 
   PBGIDL =      0 
   LEGIDL =      0 
   NEGIDL =      0 
   PEGIDL =      0 
   LAGISL =      0 
   NAGISL =      0 
   PAGISL =      0 
   LBGISL =      0 
   NBGISL =      0 
   PBGISL =      0 
   LEGISL =      0 
   NEGISL =      0 
   PEGISL =      0 
   LALPHA0 =      0 
   NALPHA0 =      0 
   PALPHA0 =      0 
   LALPHA1 =      0 
   NALPHA1 =      0 
   PALPHA1 =      0 
   LBETA0 =      0 
   NBETA0 =      0 
   PBETA0 =      0 
   LALPHAII =      0 
   NALPHAII =      0 
   PALPHAII =      0 
   LBETAII0 =      0 
   NBETAII0 =      0 
   PBETAII0 =      0 
   LBETAII1 =      0 
   NBETAII1 =      0 
   PBETAII1 =      0 
   LBETAII2 =      0 
   NBETAII2 =      0 
   PBETAII2 =      0 
   LESATII =      0 
   NESATII =      0 
   PESATII =      0 
   LLII =      0 
   NLII =      0 
   PLII =      0 
   LSII0 =      0 
   NSII0 =      0 
   PSII0 =      0 
   LSII1 =      0 
   NSII1 =      0 
   PSII1 =      0 
   LSII2 =      0 
   NSII2 =      0 
   PSII2 =      0 
   LSIID =      0 
   NSIID =      0 
   PSIID =      0 
   LCFS =      0 
   NCFS =      0 
   PCFS =      0 
   LCFD =      0 
   NCFD =      0 
   PCFD =      0 
   LCOVS =      0 
   NCOVS =      0 
   PCOVS =      0 
   LCOVD =      0 
   NCOVD =      0 
   PCOVD =      0 
   LCGSL =      0 
   NCGSL =      0 
   PCGSL =      0 
   LCGDL =      0 
   NCGDL =      0 
   PCGDL =      0 
   LCKAPPAS =      0 
   NCKAPPAS =      0 
   PCKAPPAS =      0 
   LCKAPPAD =      0 
   NCKAPPAD =      0 
   PCKAPPAD =      0 
   LCGBL =      0 
   NCGBL =      0 
   PCGBL =      0 
   LCKAPPAB =      0 
   NCKAPPAB =      0 
   PCKAPPAB =      0 
   LNTGEN =      0 
   NNTGEN =      0 
   PNTGEN =      0 
   LAIGEN =      0 
   NAIGEN =      0 
   PAIGEN =      0 
   LBIGEN =      0 
   NBIGEN =      0 
   PBIGEN =      0 
   LXRCRG1 =      0 
   NXRCRG1 =      0 
   PXRCRG1 =      0 
   LXRCRG2 =      0 
   NXRCRG2 =      0 
   PXRCRG2 =      0 
   LINTNOI =      0 
   NINTNOI =      0 
   PINTNOI =      0 
   LUTE =      0 
   NUTE =      0 
   PUTE =      0 
   LUTL =      0 
   NUTL =      0 
   PUTL =      0 
   LUA1 =      0 
   NUA1 =      0 
   PUA1 =      0 
   LUD1 =      0 
   NUD1 =      0 
   PUD1 =      0 
   LUCSTE =      0 
   NUCSTE =      0 
   PUCSTE =      0 
   LPTWGT =      0 
   NPTWGT =      0 
   PPTWGT =      0 
   LAT =      0 
   NAT =      0 
   PAT =      0 
   LSTTHETASAT =      0 
   NSTTHETASAT =      0 
   PSTTHETASAT =      0 
   LPRT =      0 
   NPRT =      0 
   PPRT =      0 
   LIIT =      0 
   NIIT =      0 
   PIIT =      0 
   LTII =      0 
   NTII =      0 
   PTII =      0 
   LTGIDL =      0 
   NTGIDL =      0 
   PTGIDL =      0 
   LIGT =      0 
   NIGT =      0 
   PIGT =      0 
   L =  2e-08 m
   D =  4e-08 m
   TFIN = 1.2e-08 m
   FPITCH = 4.2e-08 m
   NF = 1 
   NFIN = 1 
   NGCON = 1 
   ASEO =      0 m^2
   ADEO =      0 m^2
   PSEO =      0 m
   PDEO =      0 m
   ASEJ =      0 m^2
   ADEJ =      0 m^2
   PSEJ =      0 m
   PDEJ =      0 m
   CGSP =      0 F
   CGDP =      0 F
   CDSP =      0 F
   NRS =      0 
   NRD =      0 
   LRSD =  2e-08 m
   XL =      0 m
   DELVTRAND =      0 
   U0MULT =      1 
   IDS0MULT =      1 
   Lmin =  1e-08 m
   Lmax =  3e-08 m
   NFINmin = 0 
   NFINmax = 1 
   LVSAT1 =      0 
   NVSAT1 =      0 
   PVSAT1 =      0 
   LETAMOB =      0 
   NETAMOB =      0 
   PETAMOB =      0 
   LPCLMG =      0 
   NPCLMG =      0 
   PPCLMG =      0 
   LVASAT =      0 
   NVASAT =      0 
   PVASAT =      0 
   LAIGBACC =      0 
   NAIGBACC =      0 
   PAIGBACC =      0 
   LBIGBACC =      0 
   NBIGBACC =      0 
   PBIGBACC =      0 
   LCIGBACC =      0 
   NCIGBACC =      0 
   PCIGBACC =      0 
   LNIGBACC =      0 
   NNIGBACC =      0 
   PNIGBACC =      0 
 Model Name: nfet 
 BSIM-MG BULK Model(Level72)
   VERSION = 105.03  
   DEVTYPE = 1 
   BULKMOD = 1  
   COREMOD = 0 
   GEOMOD = 1 
   RDSMOD = 1 
   IGCMOD = 1 
   IGBMOD = 1 
   GIDLMOD = 0 
   IIMOD = 0 
   NQSMOD = 0 
   SHMOD = 0 
   RGATEMOD = 0 
   RGEOMOD = 1 
   CGEOMOD = 2 
   CAPMOD = 0 
   LINT =  1e-09 m
   LL =      0 m^(LLN+1)
   LLN =      1 
   DLC =      0 m
   DLBIN =      0 
   LLC =      0 m^(LLN+1)
   EOT =  8e-10 m
   TOXP = 1.35e-09 m
   EOTBOX = 1.4e-07 m
   HFIN = 2.6e-08 m
   FECH =      1 
   DELTAW =      0 m
   FECHCV =      1 
   DELTAWCV =      0 m
   NBODY =  1e+23 m^-3
   NSD =  3e+26 m^-3
   PHIG =  4.406 eV
   EPSROX =    3.9 
   EPSRSUB =   11.9 
   EASUB =   4.05 eV
   NI0SUB = 1.1e+16 m^-3
   BG0SUB =   1.12 eV
   NC0SUB = 2.86e+25 m^-3
   NGATE =      0 m^-3
   CIT = 1.3e-05 F/m^2
   CDSC =  0.018 F/m^2
   CDSCD =  0.007 F/m^2
   CDSCDR =  0.007 
   DVT0 =   0.01 
   DVT1 =   0.69 
   PHIN =   0.05 V
   ETA0 = 0.5261 
   ETA0R = 0.5261 
   DSUB =    0.9 
   K1RSCE =      0 V^1/2
   LPE0 =  5e-09 m
   DVTSHIFT =      0 
   QMFACTOR =      0 
   QMTCENIV =      0 
   QMTCENCV =      0 
   AQMTCEN =      0 
   BQMTCEN = 1.2e-08 
   ETAQM =   0.54 
   QM0 = 0.001143 
   PQM =   0.66 
   QM0ACC =  0.001 
   PQMACC =   0.66 
   VSAT =  9e+04 
   AVSAT =      0 
   BVSAT =  1e-07 
   VSAT1 =  9e+04 
   AVSAT1 =      0 
   BVSAT1 =  1e-07 
   DELTAVSAT =      1 
   KSATIV =    0.8 
   MEXP =      3 
   AMEXP =      0 
   BMEXP =      1 
   PTWG =      0 
   APTWG =      0 
   BPTWG =  1e-07 
   AT = -0.00156 
   TMEXP =      0 
   PTWGT =  0.004 
   U0 = 0.0448 
   ETAMOB =      2 
   UP =      0 
   LPA =      1 
   UA =    0.3 
   AUA =      0 
   BUA =  1e-07 
   EU =    1.8 
   AEU =      0 
   BEU =  1e-07 
   UD =      0 
   AUD =      0 
   BUD =  5e-08 
   UCS =      0 
   UTE =      0 
   UTL = -0.0015 
   UA1 = 0.001032 
   UD1 =      0 
   UCSTE = -0.00478 
   RDSWMIN =      0 
   RDSW =    100 
   ARDSW =      0 
   BRDSW =  1e-07 
   RSWMIN =      0 
   RSW =      0 
   ARSW =      0 
   BRSW =  1e-07 
   RDWMIN =      0 
   RDW =      0 
   ARDW =      0 
   BRDW =  1e-07 
   PRWG =      0 
   WR =      1 
   PRT =  0.001 
   PDIBL1 =    1.3 
   PDIBL2 = 0.0002 
   DROUT =   1.06 
   PVAG =      1 
   PCLM =    0.2 
   APCLM =      0 
   BPCLM =  1e-07 
   PCLMG =      0 
   VASAT =    0.6 
   PCLMCV =  0.013 
   PCLMGCV =      0 
   VASATCV =    0.2 
   RGEXT =      0 ohm
   RGFIN =  0.001 ohm
   RSHS =      0 ohm
   RSHD =      0 ohm
   HEPI = 9.5e-09 m
   TSILI =  9e-09 m
   RHOC = 1.5e-12 ohm/m^2
   RHORSD =      1 ohm/m
   RHOEXT =      1 ohm/m
   CRATIO =    0.5 
   DELTAPRSD =      0 m
   SDTERM = 0 
   LSP =  4e-09 m
   LDG =  3e-09 m
   EPSRSP =    3.9 
   TGATE =  9e-09 m
   TMASK =      0 m
   ASILIEND =      0 m^2
   ARSDEND =      0 m^2
   PRSDEND =      0 m
   NSDE =  3e+25 m^-3
   RGEOA =      1 
   RGEOB =      0 m^-1
   RGEOC =      0 m^-1
   RGEOD =      0 m^-1
   RGEOE =      0 m^-1
   CGEOA =      1 
   CGEOB =      0 m^-1
   CGEOC =      0 m^-1
   CGEOD =      0 m^-1
   CGEOE =      1 
   AIGBINV = 0.0111 (Fs^2/g)^0.5m^-1
   BIGBINV =   0.03 (Fs^2/g)^0.5m^-1
   CIGBINV =  0.006 V^-1
   EIGBINV =    1.1 V
   NIGBINV =    1.2 
   AIGBACC = 0.0149 
   BIGBACC = 0.000949 
   CIGBACC =  0.075 
   NIGBACC =      3 
   AIGC = 0.0136 (Fs^2/g)^0.5m^-1
   BIGC = 0.00171 (Fs^2/g)^0.5m^-1V^-1
   CIGC =  0.075 V^-1
   NIGC =      1 
   DLCIGS =      0 m
   AIGS = 0.0136 (Fs^2/g)^0.5m^-1
   BIGS = 0.00171 (Fs^2/g)^0.5m^-1V^-1
   CIGS =  0.075 V^-1
   DLCIGD =      0 m
   AIGD = 0.0136 (Fs^2/g)^0.5m^-1
   BIGD = 0.00171 (Fs^2/g)^0.5m^-1V^-1
   CIGD =  0.075 V^-1
   POXEDGE =      1 
   AGIDL = 5.729e-12 ohm^-1
   BGIDL =  3e+08 V/m
   EGIDL =    0.1 V
   AGISL = 5.729e-12 ohm^-1
   BGISL =  3e+08 V/m
   EGISL =    0.1 V
   ALPHA0 =      0 mV^-1
   ALPHA1 =      0 V^-1
   BETA0 =     30 V^-1
   ALPHAII =      0 
   BETAII0 =      0 V^-1
   BETAII1 =      0 
   BETAII2 =    0.1 V
   ESATII =  1e+07 V/m
   LII =  5e-10 V/m
   SII0 =    0.5 V^-1
   SII1 =    0.1 
   SII2 =      0 V
   SIID =      0 V
   EOTACC =  8e-10 m
   DELVFBACC =      0 V
   CFS = 2.56e-11 F/m
   CFD = 2.65e-11 F/m
   COVS = 2.5e-11 F/m
   COVD = 2.5e-11 F/m
   CGSO =      0 F/m
   CGDO =      0 F/m
   CGSL =      0 F/m
   CGDL =      0 F/m
   CKAPPAS =    0.6 V
   CKAPPAD =    0.6 V
   CGBO =      0 F/m
   CGBL =      0 F/m
   CKAPPAB =    0.6 V
   CSDESW =      0 F/m
   CJS = 0.0005 F/m^2
   CJD = 0.0005 F/m^2
   CJSWS =  5e-10 F/m
   CJSWD =  5e-10 F/m
   CJSWGS =      0 F/m
   CJSWGD =      0 F/m
   PBS =      1 V
   PBD =      1 V
   PBSWS =      1 V
   PBSWD =      1 V
   PBSWGS =      1 V
   PBSWGD =      1 V
   MJS, =    0.5 
   MJD =    0.5 
   MJSWS =   0.33 
   MJSWD =   0.33 
   MJSWGS =   0.33 
   MJSWGD =   0.33 
   SJS =      0 
   SJD =      0 
   SJSWS =      0 
   SJSWD =      0 
   SJSWGS =      0 
   SJSWGD =      0 
   MJS2 =  0.125 
   MJD2 =  0.125 
   MJSWS2 =   0.33 
   MJSWD2 =   0.33 
   MJSWGS2 =   0.33 
   MJSWGD2 =   0.33 
   JSS = 0.0001 A/m^2
   JSD = 0.0001 A/m^2
   JSWS =      0 A/m
   JSWD =      0 A/m
   JSWGS =      0 A/m
   JSWGD =      0 A/m
   NJS =      1 
   NJD =      1 
   IJTHSFWD =    0.1 A
   IJTHDFWD =    0.1 A
   IJTHSREV =    0.1 A
   IJTHDREV =    0.1 A
   BVS =     10 V
   BVD =     10 V
   XJBVS =      1 
   XJBVD =      1 
   JTSS =      0 A/m^2
   JTSD =      0 A/m^2
   JTSSWS =      0 A/m
   JTSSWD =      0 A/m
   JTSSWGS =      0 A/m
   JTSSWGD =      0 A/m
   JTWEFF =      0 m
   NJTS =     20 
   NJTSD =     20 
   NJTSSW =     20 
   NJTSSWD =     20 
   NJTSSWG =     20 
   NJTSSWGD =     20 
   VTSS =     10 V
   VTSD =     10 V
   VTSSWS =     10 V
   VTSSWD =     10 V
   VTSSWGS =     10 V
   VTSSWGD =     10 V
   LINTIGEN =      0 m
   NTGEN =      1 
   AIGEN =      0 m^-3V^-1
   BIGEN =      0 m^-3V^-3
   XRCRG1 =     12 
   XRCRG2 =      1 
   NSEG = 5 
   EF =      1 
   EM = 4.1e+07 V/m
   NOIA = 6.25e+39 eV^-1s^1-EFm^-3
   NOIB = 3.125e+24 eV^-1s^1-EFm^-1
   NOIC = 8.75e+07 eV^-1s^1-EFm
   NTNOI =      1 
   TNOM =  300.1 K
   TBGASUB = 0.000702 eV/K
   TBGBSUB =   1108 K
   KT1 =      0 V
   KT1L =      0 Vm
   IIT =   -0.5 
   TII =      0 
   TGIDL = -0.0003 K^-1
   IGT =    2.5 
   TCJ =      0 K^-1
   TCJSW =      0 K^-1
   TCJSWG =      0 K^-1
   TPB =      0 K^-1
   TPBSW =      0 K^-1
   TPBSWG =      0 K^-1
   XTIS =      3 
   XTID =      3 
   XTSS =   0.02 
   XTSD =   0.02 
   XTSSWS =   0.02 
   XTSSWD =   0.02 
   XTSSWGS =   0.02 
   XTSSWGD =   0.02 
   TNJTS =      0 
   TNJTSD =      0 
   TNJTSSW =      0 
   TNJTSSWD =      0 
   TNJTSSWG =      0 
   TNJTSSWGD =      0 
   RTH0 =   0.01 ohm
   CTH0 =  1e-05 F
   WTH0 =      0 m
   LNBODY =      0 
   NNBODY =      0 
   PNBODY =      0 
   LPHIG =      0 
   NPHIG =      0 
   PPHIG =      0 
   LNGATE =      0 
   NNGATE =      0 
   PNGATE =      0 
   LCIT =      0 
   NCIT =      0 
   PCIT =      0 
   LCDSC =      0 
   NCDSC =      0 
   PCDSC =      0 
   LCDSCD =      0 
   NCDSCD =      0 
   PCDSCD =      0 
   LCDSCDR =      0 
   NCDSCDR =      0 
   PCDSCDR =      0 
   LDVT0 =      0 
   NDVT0 =      0 
   PDVT0 =      0 
   LDVT1 =      0 
   NDVT1 =      0 
   PDVT1 =      0 
   LPHIN =      0 
   NPHIN =      0 
   PPHIN =      0 
   LETA0 =      0 
   NETA0 =      0 
   PETA0 =      0 
   LETA0R =      0 
   NETA0R =      0 
   PETA0R =      0 
   LDSUB =      0 
   NDSUB =      0 
   PDSUB =      0 
   LK1RSCE =      0 
   NK1RSCE =      0 
   PK1RSCE =      0 
   LLPE0 =      0 
   NLPE0 =      0 
   PLPE0 =      0 
   LQMFACTOR =      0 
   NQMFACTOR =      0 
   PQMFACTOR =      0 
   LQMTCENIV =      0 
   NQMTCENIV =      0 
   PQMTCENIV =      0 
   LQMTCENCV =      0 
   NQMTCENCV =      0 
   PQMTCENCV =      0 
   LVSAT =      0 
   NVSAT =      0 
   PVSAT =      0 
   LKSATIV =      0 
   NKSATIV =      0 
   PKSATIV =      0 
   LMEXP =      0 
   NMEXP =      0 
   PMEXP =      0 
   LPTWG =      0 
   NPTWG =      0 
   PPTWG =      0 
   LTHETASAT =      0 
   NTHETASAT =      0 
   PTHETASAT =      0 
   LU0 =      0 
   NU0 =      0 
   PU0 =      0 
   LUP =      0 
   NUP =      0 
   PUP =      0 
   LUA =      0 
   NUA =      0 
   PUA =      0 
   LEU =      0 
   NEU =      0 
   PEU =      0 
   LUD =      0 
   NUD =      0 
   PUD =      0 
   LUCS =      0 
   NUCS =      0 
   PUCS =      0 
   LPCLM =      0 
   NPCLM =      0 
   PPCLM =      0 
   LPCLMCV =      0 
   NPCLMCV =      0 
   PPCLMCV =      0 
   LRDSW =      0 
   NRDSW =      0 
   PRDSW =      0 
   LRSW =      0 
   NRSW =      0 
   PRSW =      0 
   LRDW =      0 
   NRDW =      0 
   PRDW =      0 
   LPRWG =      0 
   NPRWG =      0 
   PPRWG =      0 
   LWR =      0 
   NWR =      0 
   PWR =      0 
   LPDIBL1 =      0 
   NPDIBL1 =      0 
   PPDIBL1 =      0 
   LPDIBL2 =      0 
   NPDIBL2 =      0 
   PPDIBL2 =      0 
   LDROUT =      0 
   NDROUT =      0 
   PDROUT =      0 
   LPVAG =      0 
   NPVAG =      0 
   PPVAG =      0 
   LAIGBINV =      0 
   NAIGBINV =      0 
   PAIGBINV =      0 
   LBIGBINV =      0 
   NBIGBINV =      0 
   PBIGBINV =      0 
   LCIGBINV =      0 
   NCIGBINV =      0 
   PCIGBINV =      0 
   LEIGBINV =      0 
   NEIGBINV =      0 
   PEIGBINV =      0 
   LNIGBINV =      0 
   NNIGBINV =      0 
   PNIGBINV =      0 
   LAIGC =      0 
   NAIGC =      0 
   PAIGC =      0 
   LBIGC =      0 
   NBIGC =      0 
   PBIGC =      0 
   LCIGC =      0 
   NCIGC =      0 
   PCIGC =      0 
   LNIGC =      0 
   NNIGC =      0 
   PNIGC =      0 
   LAIGS =      0 
   NAIGS =      0 
   PAIGS =      0 
   LBIGS =      0 
   NBIGS =      0 
   PBIGS =      0 
   LCIGS =      0 
   NCIGS =      0 
   PCIGS =      0 
   LAIGD =      0 
   NAIGD =      0 
   PAIGD =      0 
   LBIGD =      0 
   NBIGD =      0 
   PBIGD =      0 
   LCIGD =      0 
   NCIGD =      0 
   PCIGD =      0 
   LPOXEDGE =      0 
   NPOXEDGE =      0 
   PPOXEDGE =      0 
   LAGIDL =      0 
   NAGIDL =      0 
   PAGIDL =      0 
   LBGIDL =      0 
   NBGIDL =      0 
   PBGIDL =      0 
   LEGIDL =      0 
   NEGIDL =      0 
   PEGIDL =      0 
   LAGISL =      0 
   NAGISL =      0 
   PAGISL =      0 
   LBGISL =      0 
   NBGISL =      0 
   PBGISL =      0 
   LEGISL =      0 
   NEGISL =      0 
   PEGISL =      0 
   LALPHA0 =      0 
   NALPHA0 =      0 
   PALPHA0 =      0 
   LALPHA1 =      0 
   NALPHA1 =      0 
   PALPHA1 =      0 
   LBETA0 =      0 
   NBETA0 =      0 
   PBETA0 =      0 
   LALPHAII =      0 
   NALPHAII =      0 
   PALPHAII =      0 
   LBETAII0 =      0 
   NBETAII0 =      0 
   PBETAII0 =      0 
   LBETAII1 =      0 
   NBETAII1 =      0 
   PBETAII1 =      0 
   LBETAII2 =      0 
   NBETAII2 =      0 
   PBETAII2 =      0 
   LESATII =      0 
   NESATII =      0 
   PESATII =      0 
   LLII =      0 
   NLII =      0 
   PLII =      0 
   LSII0 =      0 
   NSII0 =      0 
   PSII0 =      0 
   LSII1 =      0 
   NSII1 =      0 
   PSII1 =      0 
   LSII2 =      0 
   NSII2 =      0 
   PSII2 =      0 
   LSIID =      0 
   NSIID =      0 
   PSIID =      0 
   LCFS =      0 
   NCFS =      0 
   PCFS =      0 
   LCFD =      0 
   NCFD =      0 
   PCFD =      0 
   LCOVS =      0 
   NCOVS =      0 
   PCOVS =      0 
   LCOVD =      0 
   NCOVD =      0 
   PCOVD =      0 
   LCGSL =      0 
   NCGSL =      0 
   PCGSL =      0 
   LCGDL =      0 
   NCGDL =      0 
   PCGDL =      0 
   LCKAPPAS =      0 
   NCKAPPAS =      0 
   PCKAPPAS =      0 
   LCKAPPAD =      0 
   NCKAPPAD =      0 
   PCKAPPAD =      0 
   LCGBL =      0 
   NCGBL =      0 
   PCGBL =      0 
   LCKAPPAB =      0 
   NCKAPPAB =      0 
   PCKAPPAB =      0 
   LNTGEN =      0 
   NNTGEN =      0 
   PNTGEN =      0 
   LAIGEN =      0 
   NAIGEN =      0 
   PAIGEN =      0 
   LBIGEN =      0 
   NBIGEN =      0 
   PBIGEN =      0 
   LXRCRG1 =      0 
   NXRCRG1 =      0 
   PXRCRG1 =      0 
   LXRCRG2 =      0 
   NXRCRG2 =      0 
   PXRCRG2 =      0 
   LINTNOI =      0 
   NINTNOI =      0 
   PINTNOI =      0 
   LUTE =      0 
   NUTE =      0 
   PUTE =      0 
   LUTL =      0 
   NUTL =      0 
   PUTL =      0 
   LUA1 =      0 
   NUA1 =      0 
   PUA1 =      0 
   LUD1 =      0 
   NUD1 =      0 
   PUD1 =      0 
   LUCSTE =      0 
   NUCSTE =      0 
   PUCSTE =      0 
   LPTWGT =      0 
   NPTWGT =      0 
   PPTWGT =      0 
   LAT =      0 
   NAT =      0 
   PAT =      0 
   LSTTHETASAT =      0 
   NSTTHETASAT =      0 
   PSTTHETASAT =      0 
   LPRT =      0 
   NPRT =      0 
   PPRT =      0 
   LIIT =      0 
   NIIT =      0 
   PIIT =      0 
   LTII =      0 
   NTII =      0 
   PTII =      0 
   LTGIDL =      0 
   NTGIDL =      0 
   PTGIDL =      0 
   LIGT =      0 
   NIGT =      0 
   PIGT =      0 
   L =  2e-08 m
   D =  4e-08 m
   TFIN = 1.2e-08 m
   FPITCH = 4.2e-08 m
   NF = 1 
   NFIN = 1 
   NGCON = 1 
   ASEO =      0 m^2
   ADEO =      0 m^2
   PSEO =      0 m
   PDEO =      0 m
   ASEJ =      0 m^2
   ADEJ =      0 m^2
   PSEJ =      0 m
   PDEJ =      0 m
   CGSP =      0 F
   CGDP =      0 F
   CDSP =      0 F
   NRS =      0 
   NRD =      0 
   LRSD =  2e-08 m
   XL =      0 m
   DELVTRAND =      0 
   U0MULT =      1 
   IDS0MULT =      1 
   Lmin =  1e-08 m
   Lmax =  3e-08 m
   NFINmin = 0 
   NFINmax = 1 
   LVSAT1 =      0 
   NVSAT1 =      0 
   PVSAT1 =      0 
   LETAMOB =      0 
   NETAMOB =      0 
   PETAMOB =      0 
   LPCLMG =      0 
   NPCLMG =      0 
   PPCLMG =      0 
   LVASAT =      0 
   NVASAT =      0 
   PVASAT =      0 
   LAIGBACC =      0 
   NAIGBACC =      0 
   PAIGBACC =      0 
   LBIGBACC =      0 
   NBIGBACC =      0 
   PBIGBACC =      0 
   LCIGBACC =      0 
   NCIGBACC =      0 
   PCIGBACC =      0 
   LNIGBACC =      0 
   NNIGBACC =      0 
   PNIGBACC =      0 
 Model Name: pfet 
 BSIM-MG BULK Model(Level72)
   VERSION = 105.03  
   DEVTYPE = -1 
   BULKMOD = 1  
   COREMOD = 0 
   GEOMOD = 1 
   RDSMOD = 1 
   IGCMOD = 1 
   IGBMOD = 1 
   GIDLMOD = 0 
   IIMOD = 0 
   NQSMOD = 0 
   SHMOD = 0 
   RGATEMOD = 0 
   RGEOMOD = 1 
   CGEOMOD = 2 
   CAPMOD = 0 
   LINT =  1e-09 m
   LL =      0 m^(LLN+1)
   LLN =      1 
   DLC =      0 m
   DLBIN =      0 
   LLC =      0 m^(LLN+1)
   EOT =  8e-10 m
   TOXP = 1.35e-09 m
   EOTBOX = 1.4e-07 m
   HFIN = 2.6e-08 m
   FECH =      1 
   DELTAW =      0 m
   FECHCV =      1 
   DELTAWCV =      0 m
   NBODY =  1e+23 m^-3
   NSD =  3e+26 m^-3
   PHIG =  4.764 eV
   EPSROX =    3.9 
   EPSRSUB =   11.9 
   EASUB =   4.05 eV
   NI0SUB = 1.1e+16 m^-3
   BG0SUB =   1.12 eV
   NC0SUB = 2.86e+25 m^-3
   NGATE =      0 m^-3
   CIT = 1.3e-05 F/m^2
   CDSC =  0.018 F/m^2
   CDSCD =  0.007 F/m^2
   CDSCDR =  0.007 
   DVT0 =   0.01 
   DVT1 =   0.69 
   PHIN =   0.05 V
   ETA0 =  0.778 
   ETA0R =  0.778 
   DSUB =    0.9 
   K1RSCE =      0 V^1/2
   LPE0 =  5e-09 m
   DVTSHIFT =      0 
   QMFACTOR =      0 
   QMTCENIV =      0 
   QMTCENCV =      0 
   AQMTCEN =      0 
   BQMTCEN = 1.2e-08 
   ETAQM =   0.54 
   QM0 = 0.001143 
   PQM =   0.66 
   QM0ACC =  0.001 
   PQMACC =   0.66 
   VSAT = 8.8e+04 
   AVSAT =      0 
   BVSAT =  1e-07 
   VSAT1 = 8.8e+04 
   AVSAT1 =      0 
   BVSAT1 =  1e-07 
   DELTAVSAT =      1 
   KSATIV =    0.8 
   MEXP =      3 
   AMEXP =      0 
   BMEXP =      1 
   PTWG =      0 
   APTWG =      0 
   BPTWG =  1e-07 
   AT = -0.00156 
   TMEXP =      0 
   PTWGT =  0.004 
   U0 =   0.03 
   ETAMOB =      2 
   UP =      0 
   LPA =      1 
   UA =    0.3 
   AUA =      0 
   BUA =  1e-07 
   EU =    1.8 
   AEU =      0 
   BEU =  1e-07 
   UD =      0 
   AUD =      0 
   BUD =  5e-08 
   UCS =      0 
   UTE =      0 
   UTL = -0.0015 
   UA1 = 0.001032 
   UD1 =      0 
   UCSTE = -0.00478 
   RDSWMIN =      0 
   RDSW =    100 
   ARDSW =      0 
   BRDSW =  1e-07 
   RSWMIN =      0 
   RSW =      0 
   ARSW =      0 
   BRSW =  1e-07 
   RDWMIN =      0 
   RDW =      0 
   ARDW =      0 
   BRDW =  1e-07 
   PRWG =      0 
   WR =      1 
   PRT =  0.001 
   PDIBL1 =    1.3 
   PDIBL2 = 0.0002 
   DROUT =   1.06 
   PVAG =      1 
   PCLM =    0.2 
   APCLM =      0 
   BPCLM =  1e-07 
   PCLMG =      0 
   VASAT =    0.6 
   PCLMCV =  0.013 
   PCLMGCV =      0 
   VASATCV =    0.2 
   RGEXT =      0 ohm
   RGFIN =  0.001 ohm
   RSHS =      0 ohm
   RSHD =      0 ohm
   HEPI = 9.5e-09 m
   TSILI =  9e-09 m
   RHOC =  2e-12 ohm/m^2
   RHORSD =      1 ohm/m
   RHOEXT =      1 ohm/m
   CRATIO =    0.5 
   DELTAPRSD =      0 m
   SDTERM = 0 
   LSP =  4e-09 m
   LDG =  3e-09 m
   EPSRSP =    3.9 
   TGATE =  9e-09 m
   TMASK =      0 m
   ASILIEND =      0 m^2
   ARSDEND =      0 m^2
   PRSDEND =      0 m
   NSDE =  3e+25 m^-3
   RGEOA =      1 
   RGEOB =      0 m^-1
   RGEOC =      0 m^-1
   RGEOD =      0 m^-1
   RGEOE =      0 m^-1
   CGEOA =      1 
   CGEOB =      0 m^-1
   CGEOC =      0 m^-1
   CGEOD =      0 m^-1
   CGEOE =      1 
   AIGBINV = 0.0111 (Fs^2/g)^0.5m^-1
   BIGBINV =   0.03 (Fs^2/g)^0.5m^-1
   CIGBINV =  0.006 V^-1
   EIGBINV =    1.1 V
   NIGBINV =    1.2 
   AIGBACC = 0.0149 
   BIGBACC = 0.000949 
   CIGBACC =  0.075 
   NIGBACC =      3 
   AIGC = 0.0136 (Fs^2/g)^0.5m^-1
   BIGC = 0.00171 (Fs^2/g)^0.5m^-1V^-1
   CIGC =  0.075 V^-1
   NIGC =      1 
   DLCIGS =      0 m
   AIGS = 0.0136 (Fs^2/g)^0.5m^-1
   BIGS = 0.00171 (Fs^2/g)^0.5m^-1V^-1
   CIGS =  0.075 V^-1
   DLCIGD =      0 m
   AIGD = 0.0136 (Fs^2/g)^0.5m^-1
   BIGD = 0.00171 (Fs^2/g)^0.5m^-1V^-1
   CIGD =  0.075 V^-1
   POXEDGE =      1 
   AGIDL = 5.729e-12 ohm^-1
   BGIDL =  3e+08 V/m
   EGIDL =    0.1 V
   AGISL = 5.729e-12 ohm^-1
   BGISL =  3e+08 V/m
   EGISL =    0.1 V
   ALPHA0 =      0 mV^-1
   ALPHA1 =      0 V^-1
   BETA0 =     30 V^-1
   ALPHAII =      0 
   BETAII0 =      0 V^-1
   BETAII1 =      0 
   BETAII2 =    0.1 V
   ESATII =  1e+07 V/m
   LII =  5e-10 V/m
   SII0 =    0.5 V^-1
   SII1 =    0.1 
   SII2 =      0 V
   SIID =      0 V
   EOTACC =  8e-10 m
   DELVFBACC =      0 V
   CFS = 2.56e-11 F/m
   CFD = 2.65e-11 F/m
   COVS = 2.5e-11 F/m
   COVD = 2.5e-11 F/m
   CGSO =      0 F/m
   CGDO =      0 F/m
   CGSL =      0 F/m
   CGDL =      0 F/m
   CKAPPAS =    0.6 V
   CKAPPAD =    0.6 V
   CGBO =      0 F/m
   CGBL =      0 F/m
   CKAPPAB =    0.6 V
   CSDESW =      0 F/m
   CJS = 0.0005 F/m^2
   CJD = 0.0005 F/m^2
   CJSWS =  5e-10 F/m
   CJSWD =  5e-10 F/m
   CJSWGS =      0 F/m
   CJSWGD =      0 F/m
   PBS =      1 V
   PBD =      1 V
   PBSWS =      1 V
   PBSWD =      1 V
   PBSWGS =      1 V
   PBSWGD =      1 V
   MJS, =    0.5 
   MJD =    0.5 
   MJSWS =   0.33 
   MJSWD =   0.33 
   MJSWGS =   0.33 
   MJSWGD =   0.33 
   SJS =      0 
   SJD =      0 
   SJSWS =      0 
   SJSWD =      0 
   SJSWGS =      0 
   SJSWGD =      0 
   MJS2 =  0.125 
   MJD2 =  0.125 
   MJSWS2 =   0.33 
   MJSWD2 =   0.33 
   MJSWGS2 =   0.33 
   MJSWGD2 =   0.33 
   JSS = 0.0001 A/m^2
   JSD = 0.0001 A/m^2
   JSWS =      0 A/m
   JSWD =      0 A/m
   JSWGS =      0 A/m
   JSWGD =      0 A/m
   NJS =      1 
   NJD =      1 
   IJTHSFWD =    0.1 A
   IJTHDFWD =    0.1 A
   IJTHSREV =    0.1 A
   IJTHDREV =    0.1 A
   BVS =     10 V
   BVD =     10 V
   XJBVS =      1 
   XJBVD =      1 
   JTSS =      0 A/m^2
   JTSD =      0 A/m^2
   JTSSWS =      0 A/m
   JTSSWD =      0 A/m
   JTSSWGS =      0 A/m
   JTSSWGD =      0 A/m
   JTWEFF =      0 m
   NJTS =     20 
   NJTSD =     20 
   NJTSSW =     20 
   NJTSSWD =     20 
   NJTSSWG =     20 
   NJTSSWGD =     20 
   VTSS =     10 V
   VTSD =     10 V
   VTSSWS =     10 V
   VTSSWD =     10 V
   VTSSWGS =     10 V
   VTSSWGD =     10 V
   LINTIGEN =      0 m
   NTGEN =      1 
   AIGEN =      0 m^-3V^-1
   BIGEN =      0 m^-3V^-3
   XRCRG1 =     12 
   XRCRG2 =      1 
   NSEG = 5 
   EF =      1 
   EM = 4.1e+07 V/m
   NOIA = 6.25e+39 eV^-1s^1-EFm^-3
   NOIB = 3.125e+24 eV^-1s^1-EFm^-1
   NOIC = 8.75e+07 eV^-1s^1-EFm
   NTNOI =      1 
   TNOM =  300.1 K
   TBGASUB = 0.000702 eV/K
   TBGBSUB =   1108 K
   KT1 =      0 V
   KT1L =      0 Vm
   IIT =   -0.5 
   TII =      0 
   TGIDL = -0.0003 K^-1
   IGT =    2.5 
   TCJ =      0 K^-1
   TCJSW =      0 K^-1
   TCJSWG =      0 K^-1
   TPB =      0 K^-1
   TPBSW =      0 K^-1
   TPBSWG =      0 K^-1
   XTIS =      3 
   XTID =      3 
   XTSS =   0.02 
   XTSD =   0.02 
   XTSSWS =   0.02 
   XTSSWD =   0.02 
   XTSSWGS =   0.02 
   XTSSWGD =   0.02 
   TNJTS =      0 
   TNJTSD =      0 
   TNJTSSW =      0 
   TNJTSSWD =      0 
   TNJTSSWG =      0 
   TNJTSSWGD =      0 
   RTH0 =   0.01 ohm
   CTH0 =  1e-05 F
   WTH0 =      0 m
   LNBODY =      0 
   NNBODY =      0 
   PNBODY =      0 
   LPHIG =      0 
   NPHIG =      0 
   PPHIG =      0 
   LNGATE =      0 
   NNGATE =      0 
   PNGATE =      0 
   LCIT =      0 
   NCIT =      0 
   PCIT =      0 
   LCDSC =      0 
   NCDSC =      0 
   PCDSC =      0 
   LCDSCD =      0 
   NCDSCD =      0 
   PCDSCD =      0 
   LCDSCDR =      0 
   NCDSCDR =      0 
   PCDSCDR =      0 
   LDVT0 =      0 
   NDVT0 =      0 
   PDVT0 =      0 
   LDVT1 =      0 
   NDVT1 =      0 
   PDVT1 =      0 
   LPHIN =      0 
   NPHIN =      0 
   PPHIN =      0 
   LETA0 =      0 
   NETA0 =      0 
   PETA0 =      0 
   LETA0R =      0 
   NETA0R =      0 
   PETA0R =      0 
   LDSUB =      0 
   NDSUB =      0 
   PDSUB =      0 
   LK1RSCE =      0 
   NK1RSCE =      0 
   PK1RSCE =      0 
   LLPE0 =      0 
   NLPE0 =      0 
   PLPE0 =      0 
   LQMFACTOR =      0 
   NQMFACTOR =      0 
   PQMFACTOR =      0 
   LQMTCENIV =      0 
   NQMTCENIV =      0 
   PQMTCENIV =      0 
   LQMTCENCV =      0 
   NQMTCENCV =      0 
   PQMTCENCV =      0 
   LVSAT =      0 
   NVSAT =      0 
   PVSAT =      0 
   LKSATIV =      0 
   NKSATIV =      0 
   PKSATIV =      0 
   LMEXP =      0 
   NMEXP =      0 
   PMEXP =      0 
   LPTWG =      0 
   NPTWG =      0 
   PPTWG =      0 
   LTHETASAT =      0 
   NTHETASAT =      0 
   PTHETASAT =      0 
   LU0 =      0 
   NU0 =      0 
   PU0 =      0 
   LUP =      0 
   NUP =      0 
   PUP =      0 
   LUA =      0 
   NUA =      0 
   PUA =      0 
   LEU =      0 
   NEU =      0 
   PEU =      0 
   LUD =      0 
   NUD =      0 
   PUD =      0 
   LUCS =      0 
   NUCS =      0 
   PUCS =      0 
   LPCLM =      0 
   NPCLM =      0 
   PPCLM =      0 
   LPCLMCV =      0 
   NPCLMCV =      0 
   PPCLMCV =      0 
   LRDSW =      0 
   NRDSW =      0 
   PRDSW =      0 
   LRSW =      0 
   NRSW =      0 
   PRSW =      0 
   LRDW =      0 
   NRDW =      0 
   PRDW =      0 
   LPRWG =      0 
   NPRWG =      0 
   PPRWG =      0 
   LWR =      0 
   NWR =      0 
   PWR =      0 
   LPDIBL1 =      0 
   NPDIBL1 =      0 
   PPDIBL1 =      0 
   LPDIBL2 =      0 
   NPDIBL2 =      0 
   PPDIBL2 =      0 
   LDROUT =      0 
   NDROUT =      0 
   PDROUT =      0 
   LPVAG =      0 
   NPVAG =      0 
   PPVAG =      0 
   LAIGBINV =      0 
   NAIGBINV =      0 
   PAIGBINV =      0 
   LBIGBINV =      0 
   NBIGBINV =      0 
   PBIGBINV =      0 
   LCIGBINV =      0 
   NCIGBINV =      0 
   PCIGBINV =      0 
   LEIGBINV =      0 
   NEIGBINV =      0 
   PEIGBINV =      0 
   LNIGBINV =      0 
   NNIGBINV =      0 
   PNIGBINV =      0 
   LAIGC =      0 
   NAIGC =      0 
   PAIGC =      0 
   LBIGC =      0 
   NBIGC =      0 
   PBIGC =      0 
   LCIGC =      0 
   NCIGC =      0 
   PCIGC =      0 
   LNIGC =      0 
   NNIGC =      0 
   PNIGC =      0 
   LAIGS =      0 
   NAIGS =      0 
   PAIGS =      0 
   LBIGS =      0 
   NBIGS =      0 
   PBIGS =      0 
   LCIGS =      0 
   NCIGS =      0 
   PCIGS =      0 
   LAIGD =      0 
   NAIGD =      0 
   PAIGD =      0 
   LBIGD =      0 
   NBIGD =      0 
   PBIGD =      0 
   LCIGD =      0 
   NCIGD =      0 
   PCIGD =      0 
   LPOXEDGE =      0 
   NPOXEDGE =      0 
   PPOXEDGE =      0 
   LAGIDL =      0 
   NAGIDL =      0 
   PAGIDL =      0 
   LBGIDL =      0 
   NBGIDL =      0 
   PBGIDL =      0 
   LEGIDL =      0 
   NEGIDL =      0 
   PEGIDL =      0 
   LAGISL =      0 
   NAGISL =      0 
   PAGISL =      0 
   LBGISL =      0 
   NBGISL =      0 
   PBGISL =      0 
   LEGISL =      0 
   NEGISL =      0 
   PEGISL =      0 
   LALPHA0 =      0 
   NALPHA0 =      0 
   PALPHA0 =      0 
   LALPHA1 =      0 
   NALPHA1 =      0 
   PALPHA1 =      0 
   LBETA0 =      0 
   NBETA0 =      0 
   PBETA0 =      0 
   LALPHAII =      0 
   NALPHAII =      0 
   PALPHAII =      0 
   LBETAII0 =      0 
   NBETAII0 =      0 
   PBETAII0 =      0 
   LBETAII1 =      0 
   NBETAII1 =      0 
   PBETAII1 =      0 
   LBETAII2 =      0 
   NBETAII2 =      0 
   PBETAII2 =      0 
   LESATII =      0 
   NESATII =      0 
   PESATII =      0 
   LLII =      0 
   NLII =      0 
   PLII =      0 
   LSII0 =      0 
   NSII0 =      0 
   PSII0 =      0 
   LSII1 =      0 
   NSII1 =      0 
   PSII1 =      0 
   LSII2 =      0 
   NSII2 =      0 
   PSII2 =      0 
   LSIID =      0 
   NSIID =      0 
   PSIID =      0 
   LCFS =      0 
   NCFS =      0 
   PCFS =      0 
   LCFD =      0 
   NCFD =      0 
   PCFD =      0 
   LCOVS =      0 
   NCOVS =      0 
   PCOVS =      0 
   LCOVD =      0 
   NCOVD =      0 
   PCOVD =      0 
   LCGSL =      0 
   NCGSL =      0 
   PCGSL =      0 
   LCGDL =      0 
   NCGDL =      0 
   PCGDL =      0 
   LCKAPPAS =      0 
   NCKAPPAS =      0 
   PCKAPPAS =      0 
   LCKAPPAD =      0 
   NCKAPPAD =      0 
   PCKAPPAD =      0 
   LCGBL =      0 
   NCGBL =      0 
   PCGBL =      0 
   LCKAPPAB =      0 
   NCKAPPAB =      0 
   PCKAPPAB =      0 
   LNTGEN =      0 
   NNTGEN =      0 
   PNTGEN =      0 
   LAIGEN =      0 
   NAIGEN =      0 
   PAIGEN =      0 
   LBIGEN =      0 
   NBIGEN =      0 
   PBIGEN =      0 
   LXRCRG1 =      0 
   NXRCRG1 =      0 
   PXRCRG1 =      0 
   LXRCRG2 =      0 
   NXRCRG2 =      0 
   PXRCRG2 =      0 
   LINTNOI =      0 
   NINTNOI =      0 
   PINTNOI =      0 
   LUTE =      0 
   NUTE =      0 
   PUTE =      0 
   LUTL =      0 
   NUTL =      0 
   PUTL =      0 
   LUA1 =      0 
   NUA1 =      0 
   PUA1 =      0 
   LUD1 =      0 
   NUD1 =      0 
   PUD1 =      0 
   LUCSTE =      0 
   NUCSTE =      0 
   PUCSTE =      0 
   LPTWGT =      0 
   NPTWGT =      0 
   PPTWGT =      0 
   LAT =      0 
   NAT =      0 
   PAT =      0 
   LSTTHETASAT =      0 
   NSTTHETASAT =      0 
   PSTTHETASAT =      0 
   LPRT =      0 
   NPRT =      0 
   PPRT =      0 
   LIIT =      0 
   NIIT =      0 
   PIIT =      0 
   LTII =      0 
   NTII =      0 
   PTII =      0 
   LTGIDL =      0 
   NTGIDL =      0 
   PTGIDL =      0 
   LIGT =      0 
   NIGT =      0 
   PIGT =      0 
   L =  2e-08 m
   D =  4e-08 m
   TFIN = 1.2e-08 m
   FPITCH = 4.2e-08 m
   NF = 1 
   NFIN = 1 
   NGCON = 1 
   ASEO =      0 m^2
   ADEO =      0 m^2
   PSEO =      0 m
   PDEO =      0 m
   ASEJ =      0 m^2
   ADEJ =      0 m^2
   PSEJ =      0 m
   PDEJ =      0 m
   CGSP =      0 F
   CGDP =      0 F
   CDSP =      0 F
   NRS =      0 
   NRD =      0 
   LRSD =  2e-08 m
   XL =      0 m
   DELVTRAND =      0 
   U0MULT =      1 
   IDS0MULT =      1 
   Lmin =  1e-08 m
   Lmax =  3e-08 m
   NFINmin = 0 
   NFINmax = 1 
   LVSAT1 =      0 
   NVSAT1 =      0 
   PVSAT1 =      0 
   LETAMOB =      0 
   NETAMOB =      0 
   PETAMOB =      0 
   LPCLMG =      0 
   NPCLMG =      0 
   PPCLMG =      0 
   LVASAT =      0 
   NVASAT =      0 
   PVASAT =      0 
   LAIGBACC =      0 
   NAIGBACC =      0 
   PAIGBACC =      0 
   LBIGBACC =      0 
   NBIGBACC =      0 
   PBIGBACC =      0 
   LCIGBACC =      0 
   NCIGBACC =      0 
   PCIGBACC =      0 
   LNIGBACC =      0 
   NNIGBACC =      0 
   PNIGBACC =      0 
 Model Name: nfet 
 BSIM-MG BULK Model(Level72)
   VERSION = 105.03  
   DEVTYPE = 1 
   BULKMOD = 1  
   COREMOD = 0 
   GEOMOD = 1 
   RDSMOD = 1 
   IGCMOD = 1 
   IGBMOD = 1 
   GIDLMOD = 0 
   IIMOD = 0 
   NQSMOD = 0 
   SHMOD = 0 
   RGATEMOD = 0 
   RGEOMOD = 1 
   CGEOMOD = 2 
   CAPMOD = 0 
   LINT =  1e-09 m
   LL =      0 m^(LLN+1)
   LLN =      1 
   DLC =      0 m
   DLBIN =      0 
   LLC =      0 m^(LLN+1)
   EOT =  8e-10 m
   TOXP = 1.35e-09 m
   EOTBOX = 1.4e-07 m
   HFIN = 2.6e-08 m
   FECH =      1 
   DELTAW =      0 m
   FECHCV =      1 
   DELTAWCV =      0 m
   NBODY =  1e+23 m^-3
   NSD =  3e+26 m^-3
   PHIG =  4.406 eV
   EPSROX =    3.9 
   EPSRSUB =   11.9 
   EASUB =   4.05 eV
   NI0SUB = 1.1e+16 m^-3
   BG0SUB =   1.12 eV
   NC0SUB = 2.86e+25 m^-3
   NGATE =      0 m^-3
   CIT = 1.3e-05 F/m^2
   CDSC =  0.018 F/m^2
   CDSCD =  0.007 F/m^2
   CDSCDR =  0.007 
   DVT0 =   0.01 
   DVT1 =   0.69 
   PHIN =   0.05 V
   ETA0 = 0.5261 
   ETA0R = 0.5261 
   DSUB =    0.9 
   K1RSCE =      0 V^1/2
   LPE0 =  5e-09 m
   DVTSHIFT =      0 
   QMFACTOR =      0 
   QMTCENIV =      0 
   QMTCENCV =      0 
   AQMTCEN =      0 
   BQMTCEN = 1.2e-08 
   ETAQM =   0.54 
   QM0 = 0.001143 
   PQM =   0.66 
   QM0ACC =  0.001 
   PQMACC =   0.66 
   VSAT =  9e+04 
   AVSAT =      0 
   BVSAT =  1e-07 
   VSAT1 =  9e+04 
   AVSAT1 =      0 
   BVSAT1 =  1e-07 
   DELTAVSAT =      1 
   KSATIV =    0.8 
   MEXP =      3 
   AMEXP =      0 
   BMEXP =      1 
   PTWG =      0 
   APTWG =      0 
   BPTWG =  1e-07 
   AT = -0.00156 
   TMEXP =      0 
   PTWGT =  0.004 
   U0 = 0.0448 
   ETAMOB =      2 
   UP =      0 
   LPA =      1 
   UA =    0.3 
   AUA =      0 
   BUA =  1e-07 
   EU =    1.8 
   AEU =      0 
   BEU =  1e-07 
   UD =      0 
   AUD =      0 
   BUD =  5e-08 
   UCS =      0 
   UTE =      0 
   UTL = -0.0015 
   UA1 = 0.001032 
   UD1 =      0 
   UCSTE = -0.00478 
   RDSWMIN =      0 
   RDSW =    100 
   ARDSW =      0 
   BRDSW =  1e-07 
   RSWMIN =      0 
   RSW =      0 
   ARSW =      0 
   BRSW =  1e-07 
   RDWMIN =      0 
   RDW =      0 
   ARDW =      0 
   BRDW =  1e-07 
   PRWG =      0 
   WR =      1 
   PRT =  0.001 
   PDIBL1 =    1.3 
   PDIBL2 = 0.0002 
   DROUT =   1.06 
   PVAG =      1 
   PCLM =    0.2 
   APCLM =      0 
   BPCLM =  1e-07 
   PCLMG =      0 
   VASAT =    0.6 
   PCLMCV =  0.013 
   PCLMGCV =      0 
   VASATCV =    0.2 
   RGEXT =      0 ohm
   RGFIN =  0.001 ohm
   RSHS =      0 ohm
   RSHD =      0 ohm
   HEPI = 9.5e-09 m
   TSILI =  9e-09 m
   RHOC = 1.5e-12 ohm/m^2
   RHORSD =      1 ohm/m
   RHOEXT =      1 ohm/m
   CRATIO =    0.5 
   DELTAPRSD =      0 m
   SDTERM = 0 
   LSP =  4e-09 m
   LDG =  3e-09 m
   EPSRSP =    3.9 
   TGATE =  9e-09 m
   TMASK =      0 m
   ASILIEND =      0 m^2
   ARSDEND =      0 m^2
   PRSDEND =      0 m
   NSDE =  3e+25 m^-3
   RGEOA =      1 
   RGEOB =      0 m^-1
   RGEOC =      0 m^-1
   RGEOD =      0 m^-1
   RGEOE =      0 m^-1
   CGEOA =      1 
   CGEOB =      0 m^-1
   CGEOC =      0 m^-1
   CGEOD =      0 m^-1
   CGEOE =      1 
   AIGBINV = 0.0111 (Fs^2/g)^0.5m^-1
   BIGBINV =   0.03 (Fs^2/g)^0.5m^-1
   CIGBINV =  0.006 V^-1
   EIGBINV =    1.1 V
   NIGBINV =    1.2 
   AIGBACC = 0.0149 
   BIGBACC = 0.000949 
   CIGBACC =  0.075 
   NIGBACC =      3 
   AIGC = 0.0136 (Fs^2/g)^0.5m^-1
   BIGC = 0.00171 (Fs^2/g)^0.5m^-1V^-1
   CIGC =  0.075 V^-1
   NIGC =      1 
   DLCIGS =      0 m
   AIGS = 0.0136 (Fs^2/g)^0.5m^-1
   BIGS = 0.00171 (Fs^2/g)^0.5m^-1V^-1
   CIGS =  0.075 V^-1
   DLCIGD =      0 m
   AIGD = 0.0136 (Fs^2/g)^0.5m^-1
   BIGD = 0.00171 (Fs^2/g)^0.5m^-1V^-1
   CIGD =  0.075 V^-1
   POXEDGE =      1 
   AGIDL = 5.729e-12 ohm^-1
   BGIDL =  3e+08 V/m
   EGIDL =    0.1 V
   AGISL = 5.729e-12 ohm^-1
   BGISL =  3e+08 V/m
   EGISL =    0.1 V
   ALPHA0 =      0 mV^-1
   ALPHA1 =      0 V^-1
   BETA0 =     30 V^-1
   ALPHAII =      0 
   BETAII0 =      0 V^-1
   BETAII1 =      0 
   BETAII2 =    0.1 V
   ESATII =  1e+07 V/m
   LII =  5e-10 V/m
   SII0 =    0.5 V^-1
   SII1 =    0.1 
   SII2 =      0 V
   SIID =      0 V
   EOTACC =  8e-10 m
   DELVFBACC =      0 V
   CFS = 2.56e-11 F/m
   CFD = 2.65e-11 F/m
   COVS = 2.5e-11 F/m
   COVD = 2.5e-11 F/m
   CGSO =      0 F/m
   CGDO =      0 F/m
   CGSL =      0 F/m
   CGDL =      0 F/m
   CKAPPAS =    0.6 V
   CKAPPAD =    0.6 V
   CGBO =      0 F/m
   CGBL =      0 F/m
   CKAPPAB =    0.6 V
   CSDESW =      0 F/m
   CJS = 0.0005 F/m^2
   CJD = 0.0005 F/m^2
   CJSWS =  5e-10 F/m
   CJSWD =  5e-10 F/m
   CJSWGS =      0 F/m
   CJSWGD =      0 F/m
   PBS =      1 V
   PBD =      1 V
   PBSWS =      1 V
   PBSWD =      1 V
   PBSWGS =      1 V
   PBSWGD =      1 V
   MJS, =    0.5 
   MJD =    0.5 
   MJSWS =   0.33 
   MJSWD =   0.33 
   MJSWGS =   0.33 
   MJSWGD =   0.33 
   SJS =      0 
   SJD =      0 
   SJSWS =      0 
   SJSWD =      0 
   SJSWGS =      0 
   SJSWGD =      0 
   MJS2 =  0.125 
   MJD2 =  0.125 
   MJSWS2 =   0.33 
   MJSWD2 =   0.33 
   MJSWGS2 =   0.33 
   MJSWGD2 =   0.33 
   JSS = 0.0001 A/m^2
   JSD = 0.0001 A/m^2
   JSWS =      0 A/m
   JSWD =      0 A/m
   JSWGS =      0 A/m
   JSWGD =      0 A/m
   NJS =      1 
   NJD =      1 
   IJTHSFWD =    0.1 A
   IJTHDFWD =    0.1 A
   IJTHSREV =    0.1 A
   IJTHDREV =    0.1 A
   BVS =     10 V
   BVD =     10 V
   XJBVS =      1 
   XJBVD =      1 
   JTSS =      0 A/m^2
   JTSD =      0 A/m^2
   JTSSWS =      0 A/m
   JTSSWD =      0 A/m
   JTSSWGS =      0 A/m
   JTSSWGD =      0 A/m
   JTWEFF =      0 m
   NJTS =     20 
   NJTSD =     20 
   NJTSSW =     20 
   NJTSSWD =     20 
   NJTSSWG =     20 
   NJTSSWGD =     20 
   VTSS =     10 V
   VTSD =     10 V
   VTSSWS =     10 V
   VTSSWD =     10 V
   VTSSWGS =     10 V
   VTSSWGD =     10 V
   LINTIGEN =      0 m
   NTGEN =      1 
   AIGEN =      0 m^-3V^-1
   BIGEN =      0 m^-3V^-3
   XRCRG1 =     12 
   XRCRG2 =      1 
   NSEG = 5 
   EF =      1 
   EM = 4.1e+07 V/m
   NOIA = 6.25e+39 eV^-1s^1-EFm^-3
   NOIB = 3.125e+24 eV^-1s^1-EFm^-1
   NOIC = 8.75e+07 eV^-1s^1-EFm
   NTNOI =      1 
   TNOM =  300.1 K
   TBGASUB = 0.000702 eV/K
   TBGBSUB =   1108 K
   KT1 =      0 V
   KT1L =      0 Vm
   IIT =   -0.5 
   TII =      0 
   TGIDL = -0.0003 K^-1
   IGT =    2.5 
   TCJ =      0 K^-1
   TCJSW =      0 K^-1
   TCJSWG =      0 K^-1
   TPB =      0 K^-1
   TPBSW =      0 K^-1
   TPBSWG =      0 K^-1
   XTIS =      3 
   XTID =      3 
   XTSS =   0.02 
   XTSD =   0.02 
   XTSSWS =   0.02 
   XTSSWD =   0.02 
   XTSSWGS =   0.02 
   XTSSWGD =   0.02 
   TNJTS =      0 
   TNJTSD =      0 
   TNJTSSW =      0 
   TNJTSSWD =      0 
   TNJTSSWG =      0 
   TNJTSSWGD =      0 
   RTH0 =   0.01 ohm
   CTH0 =  1e-05 F
   WTH0 =      0 m
   LNBODY =      0 
   NNBODY =      0 
   PNBODY =      0 
   LPHIG =      0 
   NPHIG =      0 
   PPHIG =      0 
   LNGATE =      0 
   NNGATE =      0 
   PNGATE =      0 
   LCIT =      0 
   NCIT =      0 
   PCIT =      0 
   LCDSC =      0 
   NCDSC =      0 
   PCDSC =      0 
   LCDSCD =      0 
   NCDSCD =      0 
   PCDSCD =      0 
   LCDSCDR =      0 
   NCDSCDR =      0 
   PCDSCDR =      0 
   LDVT0 =      0 
   NDVT0 =      0 
   PDVT0 =      0 
   LDVT1 =      0 
   NDVT1 =      0 
   PDVT1 =      0 
   LPHIN =      0 
   NPHIN =      0 
   PPHIN =      0 
   LETA0 =      0 
   NETA0 =      0 
   PETA0 =      0 
   LETA0R =      0 
   NETA0R =      0 
   PETA0R =      0 
   LDSUB =      0 
   NDSUB =      0 
   PDSUB =      0 
   LK1RSCE =      0 
   NK1RSCE =      0 
   PK1RSCE =      0 
   LLPE0 =      0 
   NLPE0 =      0 
   PLPE0 =      0 
   LQMFACTOR =      0 
   NQMFACTOR =      0 
   PQMFACTOR =      0 
   LQMTCENIV =      0 
   NQMTCENIV =      0 
   PQMTCENIV =      0 
   LQMTCENCV =      0 
   NQMTCENCV =      0 
   PQMTCENCV =      0 
   LVSAT =      0 
   NVSAT =      0 
   PVSAT =      0 
   LKSATIV =      0 
   NKSATIV =      0 
   PKSATIV =      0 
   LMEXP =      0 
   NMEXP =      0 
   PMEXP =      0 
   LPTWG =      0 
   NPTWG =      0 
   PPTWG =      0 
   LTHETASAT =      0 
   NTHETASAT =      0 
   PTHETASAT =      0 
   LU0 =      0 
   NU0 =      0 
   PU0 =      0 
   LUP =      0 
   NUP =      0 
   PUP =      0 
   LUA =      0 
   NUA =      0 
   PUA =      0 
   LEU =      0 
   NEU =      0 
   PEU =      0 
   LUD =      0 
   NUD =      0 
   PUD =      0 
   LUCS =      0 
   NUCS =      0 
   PUCS =      0 
   LPCLM =      0 
   NPCLM =      0 
   PPCLM =      0 
   LPCLMCV =      0 
   NPCLMCV =      0 
   PPCLMCV =      0 
   LRDSW =      0 
   NRDSW =      0 
   PRDSW =      0 
   LRSW =      0 
   NRSW =      0 
   PRSW =      0 
   LRDW =      0 
   NRDW =      0 
   PRDW =      0 
   LPRWG =      0 
   NPRWG =      0 
   PPRWG =      0 
   LWR =      0 
   NWR =      0 
   PWR =      0 
   LPDIBL1 =      0 
   NPDIBL1 =      0 
   PPDIBL1 =      0 
   LPDIBL2 =      0 
   NPDIBL2 =      0 
   PPDIBL2 =      0 
   LDROUT =      0 
   NDROUT =      0 
   PDROUT =      0 
   LPVAG =      0 
   NPVAG =      0 
   PPVAG =      0 
   LAIGBINV =      0 
   NAIGBINV =      0 
   PAIGBINV =      0 
   LBIGBINV =      0 
   NBIGBINV =      0 
   PBIGBINV =      0 
   LCIGBINV =      0 
   NCIGBINV =      0 
   PCIGBINV =      0 
   LEIGBINV =      0 
   NEIGBINV =      0 
   PEIGBINV =      0 
   LNIGBINV =      0 
   NNIGBINV =      0 
   PNIGBINV =      0 
   LAIGC =      0 
   NAIGC =      0 
   PAIGC =      0 
   LBIGC =      0 
   NBIGC =      0 
   PBIGC =      0 
   LCIGC =      0 
   NCIGC =      0 
   PCIGC =      0 
   LNIGC =      0 
   NNIGC =      0 
   PNIGC =      0 
   LAIGS =      0 
   NAIGS =      0 
   PAIGS =      0 
   LBIGS =      0 
   NBIGS =      0 
   PBIGS =      0 
   LCIGS =      0 
   NCIGS =      0 
   PCIGS =      0 
   LAIGD =      0 
   NAIGD =      0 
   PAIGD =      0 
   LBIGD =      0 
   NBIGD =      0 
   PBIGD =      0 
   LCIGD =      0 
   NCIGD =      0 
   PCIGD =      0 
   LPOXEDGE =      0 
   NPOXEDGE =      0 
   PPOXEDGE =      0 
   LAGIDL =      0 
   NAGIDL =      0 
   PAGIDL =      0 
   LBGIDL =      0 
   NBGIDL =      0 
   PBGIDL =      0 
   LEGIDL =      0 
   NEGIDL =      0 
   PEGIDL =      0 
   LAGISL =      0 
   NAGISL =      0 
   PAGISL =      0 
   LBGISL =      0 
   NBGISL =      0 
   PBGISL =      0 
   LEGISL =      0 
   NEGISL =      0 
   PEGISL =      0 
   LALPHA0 =      0 
   NALPHA0 =      0 
   PALPHA0 =      0 
   LALPHA1 =      0 
   NALPHA1 =      0 
   PALPHA1 =      0 
   LBETA0 =      0 
   NBETA0 =      0 
   PBETA0 =      0 
   LALPHAII =      0 
   NALPHAII =      0 
   PALPHAII =      0 
   LBETAII0 =      0 
   NBETAII0 =      0 
   PBETAII0 =      0 
   LBETAII1 =      0 
   NBETAII1 =      0 
   PBETAII1 =      0 
   LBETAII2 =      0 
   NBETAII2 =      0 
   PBETAII2 =      0 
   LESATII =      0 
   NESATII =      0 
   PESATII =      0 
   LLII =      0 
   NLII =      0 
   PLII =      0 
   LSII0 =      0 
   NSII0 =      0 
   PSII0 =      0 
   LSII1 =      0 
   NSII1 =      0 
   PSII1 =      0 
   LSII2 =      0 
   NSII2 =      0 
   PSII2 =      0 
   LSIID =      0 
   NSIID =      0 
   PSIID =      0 
   LCFS =      0 
   NCFS =      0 
   PCFS =      0 
   LCFD =      0 
   NCFD =      0 
   PCFD =      0 
   LCOVS =      0 
   NCOVS =      0 
   PCOVS =      0 
   LCOVD =      0 
   NCOVD =      0 
   PCOVD =      0 
   LCGSL =      0 
   NCGSL =      0 
   PCGSL =      0 
   LCGDL =      0 
   NCGDL =      0 
   PCGDL =      0 
   LCKAPPAS =      0 
   NCKAPPAS =      0 
   PCKAPPAS =      0 
   LCKAPPAD =      0 
   NCKAPPAD =      0 
   PCKAPPAD =      0 
   LCGBL =      0 
   NCGBL =      0 
   PCGBL =      0 
   LCKAPPAB =      0 
   NCKAPPAB =      0 
   PCKAPPAB =      0 
   LNTGEN =      0 
   NNTGEN =      0 
   PNTGEN =      0 
   LAIGEN =      0 
   NAIGEN =      0 
   PAIGEN =      0 
   LBIGEN =      0 
   NBIGEN =      0 
   PBIGEN =      0 
   LXRCRG1 =      0 
   NXRCRG1 =      0 
   PXRCRG1 =      0 
   LXRCRG2 =      0 
   NXRCRG2 =      0 
   PXRCRG2 =      0 
   LINTNOI =      0 
   NINTNOI =      0 
   PINTNOI =      0 
   LUTE =      0 
   NUTE =      0 
   PUTE =      0 
   LUTL =      0 
   NUTL =      0 
   PUTL =      0 
   LUA1 =      0 
   NUA1 =      0 
   PUA1 =      0 
   LUD1 =      0 
   NUD1 =      0 
   PUD1 =      0 
   LUCSTE =      0 
   NUCSTE =      0 
   PUCSTE =      0 
   LPTWGT =      0 
   NPTWGT =      0 
   PPTWGT =      0 
   LAT =      0 
   NAT =      0 
   PAT =      0 
   LSTTHETASAT =      0 
   NSTTHETASAT =      0 
   PSTTHETASAT =      0 
   LPRT =      0 
   NPRT =      0 
   PPRT =      0 
   LIIT =      0 
   NIIT =      0 
   PIIT =      0 
   LTII =      0 
   NTII =      0 
   PTII =      0 
   LTGIDL =      0 
   NTGIDL =      0 
   PTGIDL =      0 
   LIGT =      0 
   NIGT =      0 
   PIGT =      0 
   L =  2e-08 m
   D =  4e-08 m
   TFIN = 1.2e-08 m
   FPITCH = 4.2e-08 m
   NF = 1 
   NFIN = 1 
   NGCON = 1 
   ASEO =      0 m^2
   ADEO =      0 m^2
   PSEO =      0 m
   PDEO =      0 m
   ASEJ =      0 m^2
   ADEJ =      0 m^2
   PSEJ =      0 m
   PDEJ =      0 m
   CGSP =      0 F
   CGDP =      0 F
   CDSP =      0 F
   NRS =      0 
   NRD =      0 
   LRSD =  2e-08 m
   XL =      0 m
   DELVTRAND =      0 
   U0MULT =      1 
   IDS0MULT =      1 
   Lmin =  1e-08 m
   Lmax =  3e-08 m
   NFINmin = 0 
   NFINmax = 1 
   LVSAT1 =      0 
   NVSAT1 =      0 
   PVSAT1 =      0 
   LETAMOB =      0 
   NETAMOB =      0 
   PETAMOB =      0 
   LPCLMG =      0 
   NPCLMG =      0 
   PPCLMG =      0 
   LVASAT =      0 
   NVASAT =      0 
   PVASAT =      0 
   LAIGBACC =      0 
   NAIGBACC =      0 
   PAIGBACC =      0 
   LBIGBACC =      0 
   NBIGBACC =      0 
   PBIGBACC =      0 
   LCIGBACC =      0 
   NCIGBACC =      0 
   PCIGBACC =      0 
   LNIGBACC =      0 
   NNIGBACC =      0 
   PNIGBACC =      0 
  **info** (ptm16hp.sp:8) DC voltage reset to initial transient source value              in source        0:vin_0               new dc=  0.8500D+00
  
 **warning**  No DC path to ground from node        0:outin_30         defined in subckt 0               ; Connected by HSPICE with gdcpath


      
 **info** set option symb=1 internally to help for convergence.
 *****************************************************************
 ******  option summary
 ******
 runlvl  = 3         bypass  = 2         
  Opening plot unit= 15
 file=ptm16hp.pa0                                                              

1****** HSPICE -- F-2011.09-SP2 64-BIT (Feb 27 2012) linux ******               
 ******  
 $this uut was automatically generated by:

  ******  operating point information tnom=  25.000 temp=  25.000 *****
 ***** operating point status is voltage   simulation time is     0.     
     node    =voltage       node    =voltage       node    =voltage

 + 0:inb_0   = 850.0000m  0:inb_1   = 850.0000m  0:outb_00 = 849.2768m
 + 0:outb_10 = 849.2768m  0:outin_00= 599.0589u  0:outin_01= 599.0589u
 + 0:outin_10= 849.4156m  0:outin_11= 849.4156m  0:outin_20= 608.1247u
 + 0:outin_21= 608.1247u  0:outin_30=   8.8161m  0:outin_31=   8.8161m
 + 0:vdd     = 850.0000m

 ******  
 $this uut was automatically generated by:

  ******  transient analysis tnom=  25.000 temp=  25.000 *****
 inv_avg_power00=   4.4824u  from=   0.          to=   4.0000n
 peakpower00= 975.7538u    at=  42.7607p
             from=   0.         to=   4.0000n
 inv_avg_power10= 251.8425n  from=   0.          to=   4.0000n
 peakpower10=  32.1742u    at=   3.0884n
             from=   0.         to=   4.0000n
 inv_avg_power01=   3.7741u  from=   0.          to=   4.0000n
 peakpower01= 975.7538u    at=  42.7607p
             from=   0.         to=   4.0000n
 inv_avg_power11= 205.3231n  from=   0.          to=   4.0000n
 peakpower11=  37.2667u    at=   2.0881n
             from=   0.         to=   4.0000n
 uut_grid_avg_power=   8.7137u  from=   0.          to=   4.0000n
 uut_grid_max_power=   1.9551m    at=  42.7607p
             from=   0.         to=   4.0000n
 source_power=  11.8157u  from=   0.          to=   4.0000n
 trf_delay_001=   3.1727p  targ=  33.8267p   trig=  30.6539p
 tfr_delay_001=   1.0422n  targ=   1.0822n   trig=  39.9751p
 trf_delay_002=   1.9941n  targ=   2.0349n   trig=  40.7905p
 tfr_delay_002=   2.0038n  targ=   3.0821n   trig=   1.0783n
 trf_delay_101=-438.5631f  targ=   1.0817n   trig=   1.0822n
 tfr_delay_101= 836.4418f  targ=  34.6631p   trig=  33.8267p
 trf_delay_102=   2.0046p  targ=   3.0841n   trig=   3.0821n
 tfr_delay_102=-459.6384f  targ=   2.0344n   trig=   2.0349n
 trf_delay_011=   3.1727p  targ=  33.8267p   trig=  30.6539p
 tfr_delay_011=   2.0426n  targ=   2.0826n   trig=  39.9751p
 trf_delay_111=   1.5681p  targ=   2.0842n   trig=   2.0826n
 tfr_delay_111= 836.4418f  targ=  34.6631p   trig=  33.8267p
x

        time    voltage      voltage    
                 outin_00     outin_10  
    0.          599.0589u    849.4156m  
   10.00000p     13.7711m    850.2108m  
   20.00000p     65.7886m    849.4836m  
   30.00000p    386.2952m    749.4564m  
   40.00000p    419.4611m     -1.3993   
   50.00000p      1.9880    -996.7138m  
   60.00000p    935.7870m    -45.9167m  
   70.00000p    849.4361m    633.6277u  
   80.00000p    849.4430m    634.4048u  
   90.00000p    849.4292m    615.1573u  
  100.00000p    849.4002m    572.7697u  
  110.00000p    849.4066m    581.9496u  
  120.00000p    849.4200m    601.2183u  
  130.00000p    849.4334m    620.4871u  
  140.00000p    849.4468m    639.7559u  
  150.00000p    849.4507m    645.3715u  
  160.00000p    849.4444m    636.4606u  
  170.00000p    849.4382m    627.5497u  
  180.00000p    849.4320m    618.6388u  
  190.00000p    849.4258m    609.7279u  
  200.00000p    849.4195m    600.8170u  
  210.00000p    849.4133m    591.9061u  
  220.00000p    849.4071m    582.9952u  
  230.00000p    849.4008m    574.0844u  
  240.00000p    849.3960m    567.1461u  
  250.00000p    849.3992m    571.7048u  
  260.00000p    849.4024m    576.2636u  
  270.00000p    849.4056m    580.8224u  
  280.00000p    849.4088m    585.3812u  
  290.00000p    849.4120m    589.9399u  
  300.00000p    849.4152m    594.4987u  
  310.00000p    849.4184m    599.0575u  
  320.00000p    849.4215m    603.6163u  
  330.00000p    849.4247m    608.1750u  
  340.00000p    849.4279m    612.7338u  
  350.00000p    849.4311m    617.2926u  
  360.00000p    849.4343m    621.8514u  
  370.00000p    849.4375m    626.4101u  
  380.00000p    849.4407m    630.9689u  
  390.00000p    849.4439m    635.5277u  
  400.00000p    849.4471m    640.0865u  
  410.00000p    849.4503m    644.6452u  
  420.00000p    849.4535m    649.2040u  
  430.00000p    849.4509m    645.4175u  
  440.00000p    849.4479m    641.2818u  
  450.00000p    849.4450m    637.1460u  
  460.00000p    849.4421m    633.0103u  
  470.00000p    849.4392m    628.8746u  
  480.00000p    849.4363m    624.7388u  
  490.00000p    849.4334m    620.6031u  
  500.00000p    849.4305m    616.4673u  
  510.00000p    849.4276m    612.3316u  
  520.00000p    849.4247m    608.1959u  
  530.00000p    849.4218m    604.0601u  
  540.00000p    849.4189m    599.9244u  
  550.00000p    849.4160m    595.7887u  
  560.00000p    849.4131m    591.6529u  
  570.00000p    849.4102m    587.5172u  
  580.00000p    849.4073m    583.3814u  
  590.00000p    849.4044m    579.2457u  
  600.00000p    849.4015m    575.1100u  
  610.00000p    849.3986m    570.9742u  
  620.00000p    849.3957m    566.8385u  
  630.00000p    849.3983m    570.6332u  
  640.00000p    849.4012m    574.7598u  
  650.00000p    849.4041m    578.8864u  
  660.00000p    849.4070m    583.0130u  
  670.00000p    849.4099m    587.1396u  
  680.00000p    849.4129m    591.2662u  
  690.00000p    849.4158m    595.3928u  
  700.00000p    849.4187m    599.5194u  
  710.00000p    849.4216m    603.6460u  
  720.00000p    849.4245m    607.7726u  
  730.00000p    849.4274m    611.8992u  
  740.00000p    849.4303m    616.0258u  
  750.00000p    849.4332m    620.1524u  
  760.00000p    849.4361m    624.2790u  
  770.00000p    849.4390m    628.4056u  
  780.00000p    849.4419m    632.5322u  
  790.00000p    849.4448m    636.6588u  
  800.00000p    849.4477m    640.7854u  
  810.00000p    849.4506m    644.9120u  
  820.00000p    849.4535m    649.0386u  
  830.00000p    849.4508m    645.2522u  
  840.00000p    849.4479m    641.1347u  
  850.00000p    849.4450m    637.0171u  
  860.00000p    849.4421m    632.8996u  
  870.00000p    849.4392m    628.7821u  
  880.00000p    849.4363m    624.6645u  
  890.00000p    849.4334m    620.5470u  
  900.00000p    849.4305m    616.4295u  
  910.00000p    849.4276m    612.3119u  
  920.00000p    849.4247m    608.1944u  
  930.00000p    849.4218m    604.0769u  
  940.00000p    849.4189m    599.9593u  
  950.00000p    849.4160m    595.8418u  
  960.00000p    849.4131m    591.7242u  
  970.00000p    849.4102m    587.6067u  
  980.00000p    849.4073m    583.4892u  
  990.00000p    849.4044m    579.3716u  
    1.00000n    849.4015m    575.2541u  
    1.01000n    849.3986m    571.1366u  
    1.02000n    849.3957m    567.0190u  
    1.03000n    849.4143m    593.3362u  
    1.04000n    849.4339m    620.9270u  
    1.05000n    849.4534m    648.5177u  
    1.06000n    836.0501m    -78.0066u  
    1.07000n    715.2513m     15.2960m  
    1.08000n    343.3269m    241.6876m  
    1.09000n     28.4933m    845.1008m  
    1.10000n      5.6804m    849.1178m  
    1.11000n    610.2801u    849.4324m  
    1.12000n    585.1249u    849.3926m  
    1.13000n    601.6820u    849.4174m  
    1.14000n    611.8898u    849.4330m  
    1.15000n    606.5061u    849.4259m  
    1.16000n    601.1223u    849.4188m  
    1.17000n    595.7385u    849.4117m  
    1.18000n    590.3548u    849.4046m  
    1.19000n    585.3156u    849.3980m  
    1.20000n    587.5712u    849.4008m  
    1.21000n    589.8267u    849.4037m  
    1.22000n    592.0823u    849.4065m  
    1.23000n    594.3379u    849.4094m  
    1.24000n    596.5935u    849.4122m  
    1.25000n    598.8490u    849.4151m  
    1.26000n    601.1046u    849.4179m  
    1.27000n    603.3602u    849.4208m  
    1.28000n    605.6158u    849.4236m  
    1.29000n    607.8714u    849.4265m  
    1.30000n    610.1269u    849.4293m  
    1.31000n    612.3825u    849.4322m  
    1.32000n    611.4865u    849.4311m  
    1.33000n    610.1327u    849.4294m  
    1.34000n    608.7789u    849.4277m  
    1.35000n    607.4251u    849.4260m  
    1.36000n    606.0713u    849.4244m  
    1.37000n    604.7175u    849.4227m  
    1.38000n    603.3637u    849.4210m  
    1.39000n    602.0099u    849.4193m  
    1.40000n    600.6561u    849.4177m  
    1.41000n    599.3023u    849.4160m  
    1.42000n    597.9485u    849.4143m  
    1.43000n    596.5947u    849.4126m  
    1.44000n    595.2409u    849.4110m  
    1.45000n    593.8871u    849.4093m  
    1.46000n    592.5333u    849.4076m  
    1.47000n    591.1795u    849.4059m  
    1.48000n    589.8257u    849.4042m  
    1.49000n    588.4719u    849.4026m  
    1.50000n    587.1181u    849.4009m  
    1.51000n    585.7643u    849.3992m  
    1.52000n    586.7622u    849.4004m  
    1.53000n    588.1016u    849.4021m  
    1.54000n    589.4411u    849.4037m  
    1.55000n    590.7806u    849.4053m  
    1.56000n    592.1200u    849.4070m  
    1.57000n    593.4595u    849.4086m  
    1.58000n    594.7990u    849.4102m  
    1.59000n    596.1384u    849.4119m  
    1.60000n    597.4779u    849.4135m  
    1.61000n    598.8174u    849.4151m  
    1.62000n    600.1568u    849.4168m  
    1.63000n    601.4963u    849.4184m  
    1.64000n    602.8358u    849.4200m  
    1.65000n    604.1752u    849.4217m  
    1.66000n    605.5147u    849.4233m  
    1.67000n    606.8542u    849.4249m  
    1.68000n    608.1936u    849.4266m  
    1.69000n    609.5331u    849.4282m  
    1.70000n    610.8726u    849.4298m  
    1.71000n    612.2120u    849.4315m  
    1.72000n    611.2248u    849.4303m  
    1.73000n    609.8995u    849.4287m  
    1.74000n    608.5743u    849.4271m  
    1.75000n    607.2491u    849.4255m  
    1.76000n    605.9239u    849.4239m  
    1.77000n    604.5987u    849.4223m  
    1.78000n    603.2735u    849.4207m  
    1.79000n    601.9483u    849.4191m  
    1.80000n    600.6231u    849.4176m  
    1.81000n    599.2979u    849.4160m  
    1.82000n    597.9727u    849.4144m  
    1.83000n    596.6475u    849.4128m  
    1.84000n    595.3223u    849.4112m  
    1.85000n    593.9971u    849.4096m  
    1.86000n    592.6719u    849.4080m  
    1.87000n    591.3467u    849.4064m  
    1.88000n    590.0215u    849.4048m  
    1.89000n    588.6963u    849.4032m  
    1.90000n    587.3710u    849.4016m  
    1.91000n    586.0458u    849.4000m  
    1.92000n    588.4401u    849.4028m  
    1.93000n    591.3747u    849.4063m  
    1.94000n    594.3092u    849.4097m  
    1.95000n    597.2437u    849.4132m  
    1.96000n    600.1782u    849.4166m  
    1.97000n    603.1128u    849.4200m  
    1.98000n    606.0473u    849.4235m  
    1.99000n    608.9818u    849.4269m  
    2.00000n    611.9163u    849.4304m  
    2.01000n     11.1568m    850.3726m  
    2.02000n     73.6892m    848.8121m  
    2.03000n    288.5615m    637.7135m  
    2.04000n    700.2785m    154.9087m  
    2.05000n    843.6996m    281.1923u  
    2.06000n    849.4334m    574.8776u  
    2.07000n    849.4226m    618.9897u  
    2.08000n    849.4249m    608.0990u  
    2.09000n    849.4246m    608.0117u  
    2.10000n    849.4246m    607.9835u  
    2.11000n    849.4246m    607.9836u  
    2.12000n    849.4246m    607.9836u  
    2.13000n    849.4246m    607.9836u  
    2.14000n    849.4246m    607.9836u  
    2.15000n    849.4246m    607.9836u  
    2.16000n    849.4246m    607.9836u  
    2.17000n    849.4246m    607.9836u  
    2.18000n    849.4246m    607.9836u  
    2.19000n    849.4246m    607.9836u  
    2.20000n    849.4246m    607.9836u  
    2.21000n    849.4246m    607.9836u  
    2.22000n    849.4246m    607.9836u  
    2.23000n    849.4246m    607.9836u  
    2.24000n    849.4246m    607.9836u  
    2.25000n    849.4246m    607.9836u  
    2.26000n    849.4246m    607.9836u  
    2.27000n    849.4246m    607.9836u  
    2.28000n    849.4246m    607.9836u  
    2.29000n    849.4246m    607.9836u  
    2.30000n    849.4246m    607.9836u  
    2.31000n    849.4246m    607.9836u  
    2.32000n    849.4246m    607.9836u  
    2.33000n    849.4246m    607.9836u  
    2.34000n    849.4246m    607.9836u  
    2.35000n    849.4246m    607.9836u  
    2.36000n    849.4246m    607.9836u  
    2.37000n    849.4246m    607.9836u  
    2.38000n    849.4246m    607.9836u  
    2.39000n    849.4246m    607.9836u  
    2.40000n    849.4246m    607.9836u  
    2.41000n    849.4246m    607.9836u  
    2.42000n    849.4246m    607.9836u  
    2.43000n    849.4246m    607.9836u  
    2.44000n    849.4246m    607.9836u  
    2.45000n    849.4246m    607.9836u  
    2.46000n    849.4246m    607.9836u  
    2.47000n    849.4246m    607.9836u  
    2.48000n    849.4246m    607.9836u  
    2.49000n    849.4246m    607.9836u  
    2.50000n    849.4246m    607.9836u  
    2.51000n    849.4246m    607.9836u  
    2.52000n    849.4246m    607.9836u  
    2.53000n    849.4246m    607.9836u  
    2.54000n    849.4246m    607.9836u  
    2.55000n    849.4246m    607.9836u  
    2.56000n    849.4246m    607.9836u  
    2.57000n    849.4246m    607.9836u  
    2.58000n    849.4246m    607.9836u  
    2.59000n    849.4246m    607.9836u  
    2.60000n    849.4246m    607.9836u  
    2.61000n    849.4246m    607.9836u  
    2.62000n    849.4246m    607.9836u  
    2.63000n    849.4246m    607.9836u  
    2.64000n    849.4246m    607.9836u  
    2.65000n    849.4246m    607.9836u  
    2.66000n    849.4246m    607.9836u  
    2.67000n    849.4246m    607.9836u  
    2.68000n    849.4246m    607.9836u  
    2.69000n    849.4246m    607.9836u  
    2.70000n    849.4246m    607.9836u  
    2.71000n    849.4246m    607.9836u  
    2.72000n    849.4246m    607.9836u  
    2.73000n    849.4246m    607.9836u  
    2.74000n    849.4246m    607.9836u  
    2.75000n    849.4246m    607.9836u  
    2.76000n    849.4246m    607.9836u  
    2.77000n    849.4246m    607.9836u  
    2.78000n    849.4246m    607.9836u  
    2.79000n    849.4246m    607.9836u  
    2.80000n    849.4246m    607.9836u  
    2.81000n    849.4246m    607.9836u  
    2.82000n    849.4246m    607.9836u  
    2.83000n    849.4246m    607.9836u  
    2.84000n    849.4246m    607.9836u  
    2.85000n    849.4246m    607.9836u  
    2.86000n    849.4246m    607.9836u  
    2.87000n    849.4246m    607.9836u  
    2.88000n    849.4246m    607.9836u  
    2.89000n    849.4246m    607.9836u  
    2.90000n    849.4246m    607.9836u  
    2.91000n    849.4246m    607.9836u  
    2.92000n    849.4246m    607.9836u  
    2.93000n    849.4246m    607.9836u  
    2.94000n    849.4246m    607.9836u  
    2.95000n    849.4246m    607.9836u  
    2.96000n    849.4246m    607.9836u  
    2.97000n    849.4246m    607.9836u  
    2.98000n    849.4246m    607.9836u  
    2.99000n    849.4246m    607.9836u  
    3.00000n    849.4246m    607.9836u  
    3.01000n    849.4246m    607.9836u  
    3.02000n    849.4246m    607.9836u  
    3.03000n    849.4246m    607.9836u  
    3.04000n    849.4246m    607.9836u  
    3.05000n    849.4246m    607.9836u  
    3.06000n    836.0248m   -195.3916u  
    3.07000n    738.8572m      8.2425m  
    3.08000n    349.7072m    223.4312m  
    3.09000n   -589.5330m      2.9531   
    3.10000n   -712.2615m      1.6994   
    3.11000n    471.4585u    849.6716m  
    3.12000n    596.4236u    849.4201m  
    3.13000n    601.6770u    849.4121m  
    3.14000n    599.7547u    849.4145m  
    3.15000n    597.8324u    849.4169m  
    3.16000n    596.5059u    849.4186m  
    3.17000n    597.0826u    849.4180m  
    3.18000n    597.6593u    849.4173m  
    3.19000n    598.2360u    849.4166m  
    3.20000n    598.8127u    849.4159m  
    3.21000n    599.3894u    849.4152m  
    3.22000n    599.9661u    849.4145m  
    3.23000n    600.5428u    849.4138m  
    3.24000n    601.1195u    849.4131m  
    3.25000n    601.6962u    849.4124m  
    3.26000n    601.4389u    849.4127m  
    3.27000n    601.1757u    849.4131m  
    3.28000n    600.9125u    849.4134m  
    3.29000n    600.6493u    849.4137m  
    3.30000n    600.3861u    849.4140m  
    3.31000n    600.1229u    849.4143m  
    3.32000n    599.8597u    849.4146m  
    3.33000n    599.5965u    849.4149m  
    3.34000n    599.3333u    849.4152m  
    3.35000n    599.0701u    849.4155m  
    3.36000n    598.8069u    849.4158m  
    3.37000n    598.5437u    849.4161m  
    3.38000n    598.2805u    849.4164m  
    3.39000n    598.0173u    849.4167m  
    3.40000n    597.7541u    849.4170m  
    3.41000n    597.4909u    849.4174m  
    3.42000n    597.2277u    849.4177m  
    3.43000n    596.9645u    849.4180m  
    3.44000n    596.7013u    849.4183m  
    3.45000n    596.4381u    849.4186m  
    3.46000n    596.6956u    849.4183m  
    3.47000n    596.9567u    849.4180m  
    3.48000n    597.2179u    849.4177m  
    3.49000n    597.4790u    849.4174m  
    3.50000n    597.7402u    849.4171m  
    3.51000n    598.0014u    849.4168m  
    3.52000n    598.2625u    849.4165m  
    3.53000n    598.5237u    849.4162m  
    3.54000n    598.7848u    849.4159m  
    3.55000n    599.0460u    849.4156m  
    3.56000n    599.3072u    849.4153m  
    3.57000n    599.5683u    849.4150m  
    3.58000n    599.8295u    849.4147m  
    3.59000n    600.0906u    849.4144m  
    3.60000n    600.3518u    849.4141m  
    3.61000n    600.6129u    849.4138m  
    3.62000n    600.8741u    849.4135m  
    3.63000n    601.1353u    849.4132m  
    3.64000n    601.3964u    849.4129m  
    3.65000n    601.6576u    849.4126m  
    3.66000n    601.4021u    849.4129m  
    3.67000n    601.1429u    849.4132m  
    3.68000n    600.8837u    849.4135m  
    3.69000n    600.6245u    849.4137m  
    3.70000n    600.3654u    849.4140m  
    3.71000n    600.1062u    849.4143m  
    3.72000n    599.8470u    849.4146m  
    3.73000n    599.5878u    849.4149m  
    3.74000n    599.3286u    849.4152m  
    3.75000n    599.0694u    849.4155m  
    3.76000n    598.8103u    849.4158m  
    3.77000n    598.5511u    849.4161m  
    3.78000n    598.2919u    849.4164m  
    3.79000n    598.0327u    849.4167m  
    3.80000n    597.7735u    849.4170m  
    3.81000n    597.5144u    849.4173m  
    3.82000n    597.2552u    849.4176m  
    3.83000n    596.9960u    849.4179m  
    3.84000n    596.7368u    849.4182m  
    3.85000n    596.4776u    849.4185m  
    3.86000n    596.8161u    849.4181m  
    3.87000n    597.1589u    849.4177m  
    3.88000n    597.5017u    849.4173m  
    3.89000n    597.8445u    849.4169m  
    3.90000n    598.1872u    849.4165m  
    3.91000n    598.5300u    849.4162m  
    3.92000n    598.8728u    849.4158m  
    3.93000n    599.2155u    849.4154m  
    3.94000n    599.5583u    849.4150m  
    3.95000n    599.9011u    849.4146m  
    3.96000n    600.2439u    849.4143m  
    3.97000n    600.5866u    849.4139m  
    3.98000n    600.9294u    849.4135m  
    3.99000n    601.2722u    849.4131m  
    4.00000n    601.6150u    849.4127m  
y
x

        time    voltage      voltage    
                 outin_10     outin_20  
    0.          849.4156m    608.1247u  
   10.00000p    850.2108m    644.1527u  
   20.00000p    849.4836m    531.5426u  
   30.00000p    749.4564m     -2.0081m  
   40.00000p     -1.3993     530.0971m  
   50.00000p   -996.7138m    928.0715m  
   60.00000p    -45.9167m    862.1636m  
   70.00000p    633.6277u    849.4489m  
   80.00000p    634.4048u    849.4530m  
   90.00000p    615.1573u    849.4255m  
  100.00000p    572.7697u    849.3658m  
  110.00000p    581.9496u    849.3788m  
  120.00000p    601.2183u    849.4060m  
  130.00000p    620.4871u    849.4333m  
  140.00000p    639.7559u    849.4605m  
  150.00000p    645.3715u    849.4684m  
  160.00000p    636.4606u    849.4558m  
  170.00000p    627.5497u    849.4432m  
  180.00000p    618.6388u    849.4306m  
  190.00000p    609.7279u    849.4180m  
  200.00000p    600.8170u    849.4054m  
  210.00000p    591.9061u    849.3928m  
  220.00000p    582.9952u    849.3801m  
  230.00000p    574.0844u    849.3675m  
  240.00000p    567.1461u    849.3577m  
  250.00000p    571.7048u    849.3642m  
  260.00000p    576.2636u    849.3706m  
  270.00000p    580.8224u    849.3771m  
  280.00000p    585.3812u    849.3835m  
[...]
    3.65000n    599.0589u    849.4156m  
    3.66000n    599.0589u    849.4156m  
    3.67000n    599.0589u    849.4156m  
    3.68000n    599.0589u    849.4156m  
    3.69000n    599.0589u    849.4156m  
    3.70000n    599.0589u    849.4156m  
    3.71000n    599.0589u    849.4156m  
    3.72000n    599.0589u    849.4156m  
    3.73000n    599.0589u    849.4156m  
    3.74000n    599.0589u    849.4156m  
    3.75000n    599.0589u    849.4156m  
    3.76000n    599.0589u    849.4156m  
    3.77000n    599.0589u    849.4156m  
    3.78000n    599.0589u    849.4156m  
    3.79000n    599.0589u    849.4156m  
    3.80000n    599.0589u    849.4156m  
    3.81000n    599.0589u    849.4156m  
    3.82000n    599.0589u    849.4156m  
    3.83000n    599.0589u    849.4156m  
    3.84000n    599.0589u    849.4156m  
    3.85000n    599.0589u    849.4156m  
    3.86000n    599.0589u    849.4156m  
    3.87000n    599.0589u    849.4156m  
    3.88000n    599.0589u    849.4156m  
    3.89000n    599.0589u    849.4156m  
    3.90000n    599.0589u    849.4156m  
    3.91000n    599.0589u    849.4156m  
    3.92000n    599.0589u    849.4156m  
    3.93000n    599.0589u    849.4156m  
    3.94000n    599.0589u    849.4156m  
    3.95000n    599.0589u    849.4156m  
    3.96000n    599.0589u    849.4156m  
    3.97000n    599.0589u    849.4156m  
    3.98000n    599.0589u    849.4156m  
    3.99000n    599.0589u    849.4156m  
    4.00000n    599.0589u    849.4156m  
y
x

        time    voltage      voltage    
                 outin_11     outin_21  
    0.          849.4156m    608.1247u  
   10.00000p    850.2108m    644.1527u  
   20.00000p    849.4836m    531.5426u  
   30.00000p    749.4564m     -2.0081m  
   40.00000p     -1.3993     530.0971m  
   50.00000p   -996.7138m    928.0715m  
   60.00000p    -45.9167m    862.1636m  
   70.00000p    633.6277u    849.4489m  
   80.00000p    634.4048u    849.4530m  
   90.00000p    615.1573u    849.4255m  
  100.00000p    572.7697u    849.3658m  
  110.00000p    581.9496u    849.3788m  
  120.00000p    601.2183u    849.4060m  
  130.00000p    620.4871u    849.4333m  
  140.00000p    639.7559u    849.4605m  
  150.00000p    645.3715u    849.4684m  
  160.00000p    636.4606u    849.4558m  
  170.00000p    627.5497u    849.4432m  
  180.00000p    618.6388u    849.4306m  
  190.00000p    609.7279u    849.4180m  
  200.00000p    600.8170u    849.4054m  
  210.00000p    591.9061u    849.3928m  
  220.00000p    582.9952u    849.3801m  
  230.00000p    574.0844u    849.3675m  
  240.00000p    567.1461u    849.3577m  
  250.00000p    571.7048u    849.3642m  
  260.00000p    576.2636u    849.3706m  
  270.00000p    580.8224u    849.3771m  
  280.00000p    585.3812u    849.3835m  
  290.00000p    589.9399u    849.3900m  
  300.00000p    594.4987u    849.3965m  
  310.00000p    599.0575u    849.4029m  
  320.00000p    603.6163u    849.4094m  
  330.00000p    608.1750u    849.4158m  
  340.00000p    612.7338u    849.4223m  
  350.00000p    617.2926u    849.4287m  
  360.00000p    621.8514u    849.4352m  
  370.00000p    626.4101u    849.4417m  
  380.00000p    630.9689u    849.4481m  
  390.00000p    635.5277u    849.4546m  
  400.00000p    640.0865u    849.4610m  
  410.00000p    644.6452u    849.4675m  
  420.00000p    649.2040u    849.4739m  
  430.00000p    645.4175u    849.4686m  
  440.00000p    641.2818u    849.4627m  
  450.00000p    637.1460u    849.4568m  
  460.00000p    633.0103u    849.4510m  
  470.00000p    628.8746u    849.4451m  
  480.00000p    624.7388u    849.4393m  
  490.00000p    620.6031u    849.4334m  
  500.00000p    616.4673u    849.4276m  
  510.00000p    612.3316u    849.4217m  
  520.00000p    608.1959u    849.4158m  
  530.00000p    604.0601u    849.4100m  
  540.00000p    599.9244u    849.4041m  
  550.00000p    595.7887u    849.3983m  
  560.00000p    591.6529u    849.3924m  
  570.00000p    587.5172u    849.3865m  
  580.00000p    583.3814u    849.3807m  
  590.00000p    579.2457u    849.3748m  
  600.00000p    575.1100u    849.3690m  
  610.00000p    570.9742u    849.3631m  
  620.00000p    566.8385u    849.3572m  
  630.00000p    570.6332u    849.3626m  
  640.00000p    574.7598u    849.3685m  
  650.00000p    578.8864u    849.3743m  
  660.00000p    583.0130u    849.3802m  
  670.00000p    587.1396u    849.3860m  
  680.00000p    591.2662u    849.3919m  
  690.00000p    595.3928u    849.3977m  
  700.00000p    599.5194u    849.4036m  
  710.00000p    603.6460u    849.4094m  
  720.00000p    607.7726u    849.4153m  
  730.00000p    611.8992u    849.4211m  
  740.00000p    616.0258u    849.4269m  
  750.00000p    620.1524u    849.4328m  
  760.00000p    624.2790u    849.4386m  
  770.00000p    628.4056u    849.4445m  
  780.00000p    632.5322u    849.4503m  
  790.00000p    636.6588u    849.4562m  
  800.00000p    640.7854u    849.4620m  
  810.00000p    644.9120u    849.4679m  
  820.00000p    649.0386u    849.4737m  
  830.00000p    645.2522u    849.4684m  
  840.00000p    641.1347u    849.4625m  
  850.00000p    637.0171u    849.4567m  
  860.00000p    632.8996u    849.4509m  
  870.00000p    628.7821u    849.4450m  
  880.00000p    624.6645u    849.4392m  
  890.00000p    620.5470u    849.4333m  
  900.00000p    616.4295u    849.4275m  
  910.00000p    612.3119u    849.4217m  
  920.00000p    608.1944u    849.4158m  
  930.00000p    604.0769u    849.4100m  
  940.00000p    599.9593u    849.4042m  
  950.00000p    595.8418u    849.3983m  
  960.00000p    591.7242u    849.3925m  
  970.00000p    587.6067u    849.3866m  
  980.00000p    583.4892u    849.3808m  
  990.00000p    579.3716u    849.3750m  
    1.00000n    575.2541u    849.3691m  
    1.01000n    571.1366u    849.3633m  
    1.02000n    567.0190u    849.3575m  
    1.03000n    593.3362u    849.3948m  
    1.04000n    620.9270u    849.4340m  
    1.05000n    648.5177u    849.4731m  
    1.06000n    607.6763u    849.4150m  
    1.07000n    608.3524u    849.4161m  
    1.08000n    607.7822u    849.4152m  
    1.09000n    607.9724u    849.4155m  
    1.10000n    607.9779u    849.4155m  
    1.11000n    607.9837u    849.4155m  
    1.12000n    607.9835u    849.4155m  
    1.13000n    607.9837u    849.4155m  
    1.14000n    607.9837u    849.4155m  
    1.15000n    607.9837u    849.4155m  
    1.16000n    607.9837u    849.4155m  
    1.17000n    607.9836u    849.4155m  
    1.18000n    607.9836u    849.4155m  
    1.19000n    607.9835u    849.4155m  
    1.20000n    607.9836u    849.4155m  
    1.21000n    607.9836u    849.4155m  
    1.22000n    607.9836u    849.4155m  
    1.23000n    607.9836u    849.4155m  
    1.24000n    607.9836u    849.4155m  
    1.25000n    607.9836u    849.4155m  
    1.26000n    607.9837u    849.4155m  
    1.27000n    607.9837u    849.4155m  
    1.28000n    607.9837u    849.4155m  
    1.29000n    607.9837u    849.4155m  
    1.30000n    607.9837u    849.4155m  
    1.31000n    607.9837u    849.4155m  
    1.32000n    607.9837u    849.4155m  
    1.33000n    607.9837u    849.4155m  
    1.34000n    607.9837u    849.4155m  
    1.35000n    607.9837u    849.4155m  
    1.36000n    607.9837u    849.4155m  
    1.37000n    607.9837u    849.4155m  
    1.38000n    607.9837u    849.4155m  
    1.39000n    607.9837u    849.4155m  
    1.40000n    607.9837u    849.4155m  
    1.41000n    607.9836u    849.4155m  
    1.42000n    607.9836u    849.4155m  
    1.43000n    607.9836u    849.4155m  
    1.44000n    607.9836u    849.4155m  
    1.45000n    607.9836u    849.4155m  
    1.46000n    607.9836u    849.4155m  
    1.47000n    607.9836u    849.4155m  
    1.48000n    607.9836u    849.4155m  
    1.49000n    607.9836u    849.4155m  
    1.50000n    607.9835u    849.4155m  
    1.51000n    607.9835u    849.4155m  
    1.52000n    607.9835u    849.4155m  
    1.53000n    607.9836u    849.4155m  
    1.54000n    607.9836u    849.4155m  
    1.55000n    607.9836u    849.4155m  
    1.56000n    607.9836u    849.4155m  
    1.57000n    607.9836u    849.4155m  
    1.58000n    607.9836u    849.4155m  
    1.59000n    607.9836u    849.4155m  
    1.60000n    607.9836u    849.4155m  
    1.61000n    607.9836u    849.4155m  
    1.62000n    607.9837u    849.4155m  
    1.63000n    607.9837u    849.4155m  
    1.64000n    607.9837u    849.4155m  
    1.65000n    607.9837u    849.4155m  
    1.66000n    607.9837u    849.4155m  
    1.67000n    607.9837u    849.4155m  
    1.68000n    607.9837u    849.4155m  
    1.69000n    607.9837u    849.4155m  
    1.70000n    607.9837u    849.4155m  
    1.71000n    607.9837u    849.4155m  
    1.72000n    607.9837u    849.4155m  
    1.73000n    607.9837u    849.4155m  
    1.74000n    607.9837u    849.4155m  
    1.75000n    607.9837u    849.4155m  
    1.76000n    607.9837u    849.4155m  
    1.77000n    607.9837u    849.4155m  
    1.78000n    607.9837u    849.4155m  
    1.79000n    607.9837u    849.4155m  
    1.80000n    607.9837u    849.4155m  
    1.81000n    607.9836u    849.4155m  
    1.82000n    607.9836u    849.4155m  
    1.83000n    607.9836u    849.4155m  
    1.84000n    607.9836u    849.4155m  
    1.85000n    607.9836u    849.4155m  
    1.86000n    607.9836u    849.4155m  
    1.87000n    607.9836u    849.4155m  
    1.88000n    607.9836u    849.4155m  
    1.89000n    607.9836u    849.4155m  
    1.90000n    607.9835u    849.4155m  
    1.91000n    607.9835u    849.4155m  
    1.92000n    607.9836u    849.4155m  
    1.93000n    607.9836u    849.4155m  
    1.94000n    607.9836u    849.4155m  
    1.95000n    607.9836u    849.4155m  
    1.96000n    607.9837u    849.4155m  
    1.97000n    607.9837u    849.4155m  
    1.98000n    607.9837u    849.4155m  
    1.99000n    607.9837u    849.4155m  
    2.00000n    607.9838u    849.4155m  
    2.01000n    607.9836u    849.4155m  
    2.02000n    607.9836u    849.4155m  
    2.03000n    607.9836u    849.4155m  
    2.04000n    607.9836u    849.4155m  
    2.05000n    607.9836u    849.4155m  
    2.06000n   -347.3301u    849.4226m  
    2.07000n      1.9177m    849.5743m  
    2.08000n    159.6444m    804.9800m  
    2.09000n      2.8699     113.3675m  
    2.10000n      1.1072     -67.6159m  
    2.11000n    849.7106m    517.6065u  
    2.12000n    849.4110m    601.3610u  
    2.13000n    849.4176m    611.1778u  
    2.14000n    849.4200m    614.8041u  
    2.15000n    849.4171m    610.5169u  
    2.16000n    849.4143m    606.2296u  
    2.17000n    849.4114m    601.9424u  
    2.18000n    849.4100m    599.9229u  
    2.19000n    849.4113m    601.8559u  
    2.20000n    849.4126m    603.7890u  
    2.21000n    849.4139m    605.7221u  
    2.22000n    849.4152m    607.6551u  
    2.23000n    849.4165m    609.5882u  
    2.24000n    849.4178m    611.5212u  
    2.25000n    849.4191m    613.4543u  
    2.26000n    849.4204m    615.3874u  
    2.27000n    849.4215m    616.9757u  
    2.28000n    849.4209m    616.0838u  
    2.29000n    849.4203m    615.1919u  
    2.30000n    849.4197m    614.3001u  
    2.31000n    849.4191m    613.4082u  
    2.32000n    849.4185m    612.5163u  
    2.33000n    849.4179m    611.6244u  
    2.34000n    849.4173m    610.7325u  
    2.35000n    849.4167m    609.8406u  
    2.36000n    849.4161m    608.9487u  
    2.37000n    849.4155m    608.0568u  
    2.38000n    849.4149m    607.1649u  
    2.39000n    849.4143m    606.2730u  
    2.40000n    849.4137m    605.3811u  
    2.41000n    849.4131m    604.4892u  
    2.42000n    849.4125m    603.5973u  
    2.43000n    849.4119m    602.7054u  
    2.44000n    849.4113m    601.8135u  
    2.45000n    849.4107m    600.9216u  
    2.46000n    849.4101m    600.0297u  
    2.47000n    849.4097m    599.3553u  
    2.48000n    849.4103m    600.2462u  
    2.49000n    849.4109m    601.1371u  
    2.50000n    849.4114m    602.0280u  
    2.51000n    849.4120m    602.9189u  
    2.52000n    849.4126m    603.8098u  
    2.53000n    849.4132m    604.7006u  
    2.54000n    849.4138m    605.5915u  
    2.55000n    849.4144m    606.4824u  
    2.56000n    849.4150m    607.3733u  
    2.57000n    849.4156m    608.2642u  
    2.58000n    849.4162m    609.1551u  
    2.59000n    849.4168m    610.0460u  
    2.60000n    849.4174m    610.9369u  
    2.61000n    849.4180m    611.8278u  
    2.62000n    849.4186m    612.7187u  
    2.63000n    849.4192m    613.6095u  
    2.64000n    849.4198m    614.5004u  
    2.65000n    849.4204m    615.3913u  
    2.66000n    849.4210m    616.2822u  
    2.67000n    849.4214m    616.9558u  
    2.68000n    849.4208m    616.0658u  
    2.69000n    849.4202m    615.1758u  
    2.70000n    849.4196m    614.2858u  
    2.71000n    849.4190m    613.3958u  
    2.72000n    849.4185m    612.5058u  
    2.73000n    849.4179m    611.6158u  
    2.74000n    849.4173m    610.7258u  
    2.75000n    849.4167m    609.8358u  
    2.76000n    849.4161m    608.9458u  
    2.77000n    849.4155m    608.0558u  
    2.78000n    849.4149m    607.1658u  
    2.79000n    849.4143m    606.2758u  
    2.80000n    849.4137m    605.3859u  
    2.81000n    849.4131m    604.4959u  
    2.82000n    849.4125m    603.6059u  
    2.83000n    849.4119m    602.7159u  
    2.84000n    849.4113m    601.8259u  
    2.85000n    849.4107m    600.9359u  
    2.86000n    849.4101m    600.0459u  
    2.87000n    849.4097m    599.3842u  
    2.88000n    849.4103m    600.3653u  
    2.89000n    849.4110m    601.3464u  
    2.90000n    849.4117m    602.3275u  
    2.91000n    849.4123m    603.3086u  
    2.92000n    849.4130m    604.2896u  
    2.93000n    849.4136m    605.2707u  
    2.94000n    849.4143m    606.2518u  
    2.95000n    849.4149m    607.2329u  
    2.96000n    849.4156m    608.2140u  
    2.97000n    849.4162m    609.1951u  
    2.98000n    849.4169m    610.1762u  
    2.99000n    849.4176m    611.1573u  
    3.00000n    849.4182m    612.1384u  
    3.01000n    849.4189m    613.1195u  
    3.02000n    849.4195m    614.1006u  
    3.03000n    849.4202m    615.0817u  
    3.04000n    849.4208m    616.0628u  
    3.05000n    849.4215m    617.0439u  
    3.06000n    849.4155m    608.1014u  
    3.07000n    849.4156m    608.1254u  
    3.08000n    849.4156m    608.1245u  
    3.09000n    849.4156m    608.1251u  
    3.10000n    849.4156m    608.1247u  
    3.11000n    849.4156m    608.1247u  
    3.12000n    849.4156m    608.1247u  
    3.13000n    849.4156m    608.1247u  
    3.14000n    849.4156m    608.1247u  
    3.15000n    849.4156m    608.1247u  
    3.16000n    849.4156m    608.1247u  
    3.17000n    849.4156m    608.1247u  
    3.18000n    849.4156m    608.1247u  
    3.19000n    849.4156m    608.1247u  
    3.20000n    849.4156m    608.1247u  
    3.21000n    849.4156m    608.1247u  
    3.22000n    849.4156m    608.1247u  
    3.23000n    849.4156m    608.1247u  
    3.24000n    849.4156m    608.1247u  
    3.25000n    849.4156m    608.1247u  
    3.26000n    849.4156m    608.1247u  
    3.27000n    849.4156m    608.1247u  
    3.28000n    849.4156m    608.1247u  
    3.29000n    849.4156m    608.1247u  
    3.30000n    849.4156m    608.1247u  
    3.31000n    849.4156m    608.1247u  
    3.32000n    849.4156m    608.1247u  
    3.33000n    849.4156m    608.1247u  
    3.34000n    849.4156m    608.1247u  
    3.35000n    849.4156m    608.1247u  
    3.36000n    849.4156m    608.1247u  
    3.37000n    849.4156m    608.1247u  
    3.38000n    849.4156m    608.1247u  
    3.39000n    849.4156m    608.1247u  
    3.40000n    849.4156m    608.1247u  
    3.41000n    849.4156m    608.1247u  
    3.42000n    849.4156m    608.1247u  
    3.43000n    849.4156m    608.1247u  
    3.44000n    849.4156m    608.1247u  
    3.45000n    849.4156m    608.1247u  
    3.46000n    849.4156m    608.1247u  
    3.47000n    849.4156m    608.1247u  
    3.48000n    849.4156m    608.1247u  
    3.49000n    849.4156m    608.1247u  
    3.50000n    849.4156m    608.1247u  
    3.51000n    849.4156m    608.1247u  
    3.52000n    849.4156m    608.1247u  
    3.53000n    849.4156m    608.1247u  
    3.54000n    849.4156m    608.1247u  
    3.55000n    849.4156m    608.1247u  
    3.56000n    849.4156m    608.1247u  
    3.57000n    849.4156m    608.1247u  
    3.58000n    849.4156m    608.1247u  
    3.59000n    849.4156m    608.1247u  
    3.60000n    849.4156m    608.1247u  
    3.61000n    849.4156m    608.1247u  
    3.62000n    849.4156m    608.1247u  
    3.63000n    849.4156m    608.1247u  
    3.64000n    849.4156m    608.1247u  
    3.65000n    849.4156m    608.1247u  
    3.66000n    849.4156m    608.1247u  
    3.67000n    849.4156m    608.1247u  
    3.68000n    849.4156m    608.1247u  
    3.69000n    849.4156m    608.1247u  
    3.70000n    849.4156m    608.1247u  
    3.71000n    849.4156m    608.1247u  
    3.72000n    849.4156m    608.1247u  
    3.73000n    849.4156m    608.1247u  
    3.74000n    849.4156m    608.1247u  
    3.75000n    849.4156m    608.1247u  
    3.76000n    849.4156m    608.1247u  
    3.77000n    849.4156m    608.1247u  
    3.78000n    849.4156m    608.1247u  
    3.79000n    849.4156m    608.1247u  
    3.80000n    849.4156m    608.1247u  
    3.81000n    849.4156m    608.1247u  
    3.82000n    849.4156m    608.1247u  
    3.83000n    849.4156m    608.1247u  
    3.84000n    849.4156m    608.1247u  
    3.85000n    849.4156m    608.1247u  
    3.86000n    849.4156m    608.1247u  
    3.87000n    849.4156m    608.1247u  
    3.88000n    849.4156m    608.1247u  
    3.89000n    849.4156m    608.1247u  
    3.90000n    849.4156m    608.1247u  
    3.91000n    849.4156m    608.1247u  
    3.92000n    849.4156m    608.1247u  
    3.93000n    849.4156m    608.1247u  
    3.94000n    849.4156m    608.1247u  
    3.95000n    849.4156m    608.1247u  
    3.96000n    849.4156m    608.1247u  
    3.97000n    849.4156m    608.1247u  
    3.98000n    849.4156m    608.1247u  
    3.99000n    849.4156m    608.1247u  
    4.00000n    849.4156m    608.1247u  
y

          ***** job concluded
1****** HSPICE -- F-2011.09-SP2 64-BIT (Feb 27 2012) linux ******               
 ******  
 $this uut was automatically generated by:

  ******  job statistics summary tnom=  25.000 temp=  25.000 *****
  
  
 ******  Machine Information  ******
 CPU:
 model name	: Intel(R) Xeon(R) CPU E5-2650 v4 @ 2.20GHz
 cpu MHz	: 2649.023
  
 OS:
 Linux version 3.10.0-693.17.1.el7.x86_64 (mockbuild@x86-041.build.eng.bos.redha
 t.com) (gcc version 4.8.5 20150623 (Red Hat 4.8.5-16) (GCC) ) #1 SMP Sun Jan 14
  10:36:03 EST 2018


  ******  HSPICE Threads Information  ******

  Command Line Threads Count :     1
  Available CPU Count        :    24
  Actual Threads Count       :     1


  ******  Circuit Statistics  ******
  # nodes       =      46 # elements   =      19
  # resistors   =       0 # capacitors =       0 # inductors   =       0
  # mutual_inds =       0 # vccs       =       0 # vcvs        =       0
  # cccs        =       0 # ccvs       =       0 # volt_srcs   =       3
  # curr_srcs   =       0 # diodes     =       0 # bjts        =       0
  # jfets       =       0 # mosfets    =      16 # U elements  =       0
  # T elements  =       0 # W elements =       0 # B elements  =       0
  # S elements  =       0 # P elements =       0 # va device   =       0
  # vector_srcs =       0


  ******  Runtime Statistics (seconds)  ******

  analysis           time    # points   tot. iter  conv.iter
  op point           0.01           1          62
  transient          0.10         401        1201         153 rev=        11
  readin             0.01
  errchk             0.00
  setup              0.00
  output             0.01


           peak memory used        135.46 megabytes
           total cpu time            0.13 seconds
           total elapsed time        0.38 seconds
           job started at     23:40:41 09/12/2020
           job ended   at     23:40:41 09/12/2020


 lic: Release hspice token(s) 
