***** HSPICE -- F-2011.09-SP2 64-BIT (Feb 27 2012) linux ******
 Input File: ptm10hp.sp
 lic:
 lic: FLEXlm: v10.8
 lic: USER:   iliabautista         HOSTNAME: itn3.rc.usf.edu
 lic: HOSTID:                      PID:      5053
 lic: Using FLEXlm license file:
 lic: 27000@license0.rc.usf.edu
 lic: Checkout 1 hspice
 lic: License/Maintenance for hspice will expire on 18-jul-2021/2019.06
 lic: 1(in_use)/50(total) FLOATING license(s) on SERVER license0.rc.usf.edu
 lic:
 init: begin read circuit files,  cpu clock=  2.00E-02
       option post     =     2.00
 init: end read circuit files,  cpu clock=  2.00E-02 memory=       156 kb
 init: begin check errors,  cpu clock=  2.00E-02
 **warning**  No DC path to ground from node        0:                outin_30
 init: end check errors,  cpu clock=  3.00E-02 memory=       288 kb
 init: begin setup matrix, pivot=     0 cpu clock=  3.00E-02
       establish matrix -- done,  cpu clock=  3.00E-02 memory=       317 kb
       re-order matrix -- done,  cpu clock=  3.00E-02 memory=       312 kb
 init: end setup matrix,  cpu clock=  3.00E-02 memory=       367 kb
 dcop: begin dcop,  cpu clock=  3.00E-02
 dcop: end dcop,  cpu clock=  5.00E-02 memory=       367 kb  tot_iter=     112
 output: ptm10hp.mt0
 sweep: tran tran0    begin, stop_t=  4.00E-09 #sweeps= 401 cpu clock=  5.00E-02
 tran: time= 5.4331E-10 tot_iter=      94 conv_iter=      25 cpu clock= 6.00E-02
 tran: time= 9.4331E-10 tot_iter=      98 conv_iter=      27 cpu clock= 6.00E-02
 tran: time= 1.2332E-09 tot_iter=     245 conv_iter=      49 cpu clock= 7.00E-02
 tran: time= 1.6165E-09 tot_iter=     249 conv_iter=      51 cpu clock= 7.00E-02
 tran: time= 2.0000E-09 tot_iter=     253 conv_iter=      53 cpu clock= 7.00E-02
 tran: time= 2.4099E-09 tot_iter=     651 conv_iter=     113 cpu clock= 1.00E-01
 tran: time= 2.8099E-09 tot_iter=     655 conv_iter=     115 cpu clock= 1.00E-01
 tran: time= 3.2968E-09 tot_iter=     771 conv_iter=     144 cpu clock= 1.10E-01
 tran: time= 3.6968E-09 tot_iter=     775 conv_iter=     146 cpu clock= 1.10E-01
 tran: time= 4.0000E-09 tot_iter=     779 conv_iter=     148 cpu clock= 1.10E-01
 sweep: tran tran0    end,  cpu clock=  1.10E-01 memory=       368 kb
>info:         ***** hspice job concluded
 lic: Release hspice token(s)
