$DATA1 SOURCE='HSPICE' VERSION='F-2011.09-SP2 64-BIT'
.TITLE '$this uut was automatically generated by:'
 trf_delay_001    tfr_delay_001    trf_delay_002    tfr_delay_002     
 trf_delay_101    tfr_delay_101    trf_delay_102    tfr_delay_102     
 trf_delay_011    tfr_delay_011    trf_delay_111    tfr_delay_111     
 inv_avg_power00  peakpower00      inv_avg_power10  peakpower10       
 inv_avg_power01  peakpower01      inv_avg_power11  peakpower11       
 source_power     temper           alter#            
  4.667e-12        2.371e-12        4.177e-12        4.689e-12        
  2.480e-12        1.841e-12        2.104e-12        2.254e-12        
  4.667e-12        2.767e-12        1.463e-12        1.841e-12        
  2.768e-06        1.225e-03        3.139e-08        9.141e-06        
  3.366e-08        9.225e-06        1.550e-08        7.636e-06        
  2.962e-06         25.0000        1                 
