$DATA1 SOURCE='HSPICE' VERSION='F-2011.09-SP2 64-BIT'
.TITLE '$this uut was automatically generated by:'
 trf_delay_001    tfr_delay_001    trf_delay_002    tfr_delay_002     
 trf_delay_003    tfr_delay_003    trf_delay_004    tfr_delay_004     
 trf_delay_101    tfr_delay_101    trf_delay_102    tfr_delay_102     
 trf_delay_103    tfr_delay_103    trf_delay_104    tfr_delay_104     
 trf_delay_201    tfr_delay_201    trf_delay_202    tfr_delay_202     
 trf_delay_203    tfr_delay_203    trf_delay_204    tfr_delay_204     
 trf_delay_011    tfr_delay_011    trf_delay_012    tfr_delay_012     
 trf_delay_111    tfr_delay_111    trf_delay_112    tfr_delay_112     
 trf_delay_211    tfr_delay_211    trf_delay_212    tfr_delay_212     
 trf_delay_021    tfr_delay_021    trf_delay_121    tfr_delay_121     
 trf_delay_221    tfr_delay_221    inv_avg_power00  peakpower00       
 power_avg        avg_power        temper           alter#            
  4.553e-12        4.547e-12        4.161e-12        4.660e-12        
  4.495e-12        1.159e-10        1.686e-10        2.570e-10        
  3.314e-12        3.124e-12        3.137e-12        4.233e-12        
  5.278e-12        3.385e-12       -3.104e-12       -8.465e-12        
  1.622e-12        1.669e-12        4.829e-13        1.745e-12        
  2.019e-12       -4.289e-12        4.852e-12       -7.352e-12        
  4.553e-12        4.781e-12        4.495e-12        1.106e-10        
  2.072e-12        3.124e-12        1.062e-11        3.385e-12        
  1.622e-12        2.346e-12        2.019e-12       -3.080e-12        
  4.553e-12        5.621e-12        9.398e-13        3.124e-12        
  1.622e-12       -3.711e-13        2.894e-05        1.400e-03        
  5.259e-04        7.494e+28         25.0000        1                 
