 ****** HSPICE -- F-2011.09-SP2 64-BIT (Feb 27 2012) linux ******               
  Copyright (C) 2011 Synopsys, Inc. All Rights Reserved.                        
  Unpublished-rights reserved under US copyright laws.
  This program is protected by law and is subject to the
  terms and conditions of the license agreement from Synopsys.
  Use of this program is your acceptance to be bound by the
  license agreement. HSPICE is the trademark of Synopsys, Inc.
  Input File: ptm16lstp.sp                                                      
  Command line options: ptm16lstp.sp
 lic:  
 lic: FLEXlm: v10.8 
 lic: USER:   iliabautista         HOSTNAME: itn2.rc.usf.edu 
 lic: HOSTID:                      PID:      17677 
 lic: Using FLEXlm license file: 
 lic: 27000@license0.rc.usf.edu 
 lic: Checkout 1 hspice 
 lic: License/Maintenance for hspice will expire on 18-jul-2021/2019.06 
 lic: 1(in_use)/50(total) FLOATING license(s) on SERVER license0.rc.usf.edu 
 lic:   
  **warning** (../modelfiles/lstp/16nfet.pm:4) Model nfet device geometries will not be checked against the limits set by lmin, lmax, nfinmin and nfinmax. To enable this check, add a period(.) to the model name(i.e. enable model selector).
1****** HSPICE -- F-2011.09-SP2 64-BIT (Feb 27 2012) linux ******               
 ******  
 $this uut was automatically generated by:

  ******  circuit name directory
 circuit number to circuit name directory
   number circuitname                     definition         multiplier
        0 main circuit
        1 xinput_0.                       inverter           1.00 
        2 xinput_1.                       inverter           1.00 
        3 xinput_2.                       inverter           1.00 
        4 xinverter00.                    inverter           1.00 
        5 xinverter10.                    inverter           1.00 
        6 xinverter20.                    inverter           1.00 
        7 xinverter01.                    inverter           1.00 
        8 xinverter11.                    inverter           1.00 
        9 xinverter21.                    inverter           1.00 
       10 xinverter02.                    inverter           1.00 
       11 xinverter12.                    inverter           1.00 
       12 xinverter22.                    inverter           1.00 
       13 xoutput_00.                     inverter           1.00 
       14 xoutput_10.                     inverter           1.00 
       15 xoutput_20.                     inverter           1.00 
       16 xinput_0.xpfet.                 pfet               1.00 
       17 xinput_0.xnfet.                 nfet               1.00 
       18 xinput_1.xpfet.                 pfet               1.00 
       19 xinput_1.xnfet.                 nfet               1.00 
       20 xinput_2.xpfet.                 pfet               1.00 
       21 xinput_2.xnfet.                 nfet               1.00 
       22 xinverter00.xpfet.              pfet               1.00 
       23 xinverter00.xnfet.              nfet               1.00 
       24 xinverter10.xpfet.              pfet               1.00 
       25 xinverter10.xnfet.              nfet               1.00 
       26 xinverter20.xpfet.              pfet               1.00 
       27 xinverter20.xnfet.              nfet               1.00 
       28 xinverter01.xpfet.              pfet               1.00 
       29 xinverter01.xnfet.              nfet               1.00 
       30 xinverter11.xpfet.              pfet               1.00 
       31 xinverter11.xnfet.              nfet               1.00 
       32 xinverter21.xpfet.              pfet               1.00 
       33 xinverter21.xnfet.              nfet               1.00 
       34 xinverter02.xpfet.              pfet               1.00 
       35 xinverter02.xnfet.              nfet               1.00 
       36 xinverter12.xpfet.              pfet               1.00 
       37 xinverter12.xnfet.              nfet               1.00 
       38 xinverter22.xpfet.              pfet               1.00 
       39 xinverter22.xnfet.              nfet               1.00 
       40 xoutput_00.xpfet.               pfet               1.00 
       41 xoutput_00.xnfet.               nfet               1.00 
       42 xoutput_10.xpfet.               pfet               1.00 
       43 xoutput_10.xnfet.               nfet               1.00 
       44 xoutput_20.xpfet.               pfet               1.00 
       45 xoutput_20.xnfet.               nfet               1.00 
1****** HSPICE -- F-2011.09-SP2 64-BIT (Feb 27 2012) linux ******               
 ******  
 $this uut was automatically generated by:

  ******  mos   model parameters tnom=  25.000 temp=  25.000 *****
 Model Name: pfet 
 BSIM-MG BULK Model(Level72)
   VERSION = 105.03  
   DEVTYPE = -1 
   BULKMOD = 1  
   COREMOD = 0 
   GEOMOD = 1 
   RDSMOD = 1 
   IGCMOD = 1 
   IGBMOD = 1 
   GIDLMOD = 0 
   IIMOD = 0 
   NQSMOD = 0 
   SHMOD = 0 
   RGATEMOD = 0 
   RGEOMOD = 1 
   CGEOMOD = 2 
   CAPMOD = 0 
   LINT = -1e-09 m
   LL =      0 m^(LLN+1)
   LLN =      1 
   DLC =      0 m
   DLBIN =      0 
   LLC =      0 m^(LLN+1)
   EOT =  1e-09 m
   TOXP = 1.35e-09 m
   EOTBOX = 1.4e-07 m
   HFIN = 2.6e-08 m
   FECH =      1 
   DELTAW =      0 m
   FECHCV =      1 
   DELTAWCV =      0 m
   NBODY =  1e+23 m^-3
   NSD =  3e+26 m^-3
   PHIG =  4.588 eV
   EPSROX =    3.9 
   EPSRSUB =   11.9 
   EASUB =   4.05 eV
   NI0SUB = 1.1e+16 m^-3
   BG0SUB =   1.12 eV
   NC0SUB = 2.86e+25 m^-3
   NGATE =      0 m^-3
   CIT = 1.3e-05 F/m^2
   CDSC =  0.021 F/m^2
   CDSCD =  0.007 F/m^2
   CDSCDR =  0.007 
   DVT0 =   0.01 
   DVT1 =   0.69 
   PHIN =   0.05 V
   ETA0 = 0.9925 
   ETA0R = 0.9925 
   DSUB =    0.9 
   K1RSCE =      0 V^1/2
   LPE0 =  5e-09 m
   DVTSHIFT =      0 
   QMFACTOR =      0 
   QMTCENIV =      0 
   QMTCENCV =      0 
   AQMTCEN =      0 
   BQMTCEN = 1.2e-08 
   ETAQM =   0.54 
   QM0 = 0.001143 
   PQM =   0.66 
   QM0ACC =  0.001 
   PQMACC =   0.66 
   VSAT = 8.8e+04 
   AVSAT =      0 
   BVSAT =  1e-07 
   VSAT1 = 8.8e+04 
   AVSAT1 =      0 
   BVSAT1 =  1e-07 
   DELTAVSAT =      1 
   KSATIV =    0.8 
   MEXP =      3 
   AMEXP =      0 
   BMEXP =      1 
   PTWG =      0 
   APTWG =      0 
   BPTWG =  1e-07 
   AT = -0.00156 
   TMEXP =      0 
   PTWGT =  0.004 
   U0 =   0.03 
   ETAMOB =      2 
   UP =      0 
   LPA =      1 
   UA =    0.3 
   AUA =      0 
   BUA =  1e-07 
   EU =    1.8 
   AEU =      0 
   BEU =  1e-07 
   UD =      0 
   AUD =      0 
   BUD =  5e-08 
   UCS =      0 
   UTE =      0 
   UTL = -0.0015 
   UA1 = 0.001032 
   UD1 =      0 
   UCSTE = -0.00478 
   RDSWMIN =      0 
   RDSW =    100 
   ARDSW =      0 
   BRDSW =  1e-07 
   RSWMIN =      0 
   RSW =      0 
   ARSW =      0 
   BRSW =  1e-07 
   RDWMIN =      0 
   RDW =      0 
   ARDW =      0 
   BRDW =  1e-07 
   PRWG =      0 
   WR =      1 
   PRT =  0.001 
   PDIBL1 =    1.3 
   PDIBL2 = 0.0002 
   DROUT =   1.06 
   PVAG =      1 
   PCLM =    0.2 
   APCLM =      0 
   BPCLM =  1e-07 
   PCLMG =      0 
   VASAT =    0.6 
   PCLMCV =  0.013 
   PCLMGCV =      0 
   VASATCV =    0.2 
   RGEXT =      0 ohm
   RGFIN =  0.001 ohm
   RSHS =      0 ohm
   RSHD =      0 ohm
   HEPI = 9.5e-09 m
   TSILI =  9e-09 m
   RHOC =  2e-12 ohm/m^2
   RHORSD =      1 ohm/m
   RHOEXT =      1 ohm/m
   CRATIO =    0.5 
   DELTAPRSD =      0 m
   SDTERM = 0 
   LSP =  4e-09 m
   LDG =  3e-09 m
   EPSRSP =    3.9 
   TGATE =  9e-09 m
   TMASK =      0 m
   ASILIEND =      0 m^2
   ARSDEND =      0 m^2
   PRSDEND =      0 m
   NSDE =  3e+25 m^-3
   RGEOA =      1 
   RGEOB =      0 m^-1
   RGEOC =      0 m^-1
   RGEOD =      0 m^-1
   RGEOE =      0 m^-1
   CGEOA =      1 
   CGEOB =      0 m^-1
   CGEOC =      0 m^-1
   CGEOD =      0 m^-1
   CGEOE =      1 
   AIGBINV = 0.0111 (Fs^2/g)^0.5m^-1
   BIGBINV =   0.03 (Fs^2/g)^0.5m^-1
   CIGBINV =  0.006 V^-1
   EIGBINV =    1.1 V
   NIGBINV =    1.2 
   AIGBACC = 0.0149 
   BIGBACC = 0.000949 
   CIGBACC =  0.075 
   NIGBACC =      3 
   AIGC = 0.0136 (Fs^2/g)^0.5m^-1
   BIGC = 0.00171 (Fs^2/g)^0.5m^-1V^-1
   CIGC =  0.075 V^-1
   NIGC =      1 
   DLCIGS =      0 m
   AIGS = 0.0136 (Fs^2/g)^0.5m^-1
   BIGS = 0.00171 (Fs^2/g)^0.5m^-1V^-1
   CIGS =  0.075 V^-1
   DLCIGD =      0 m
   AIGD = 0.0136 (Fs^2/g)^0.5m^-1
   BIGD = 0.00171 (Fs^2/g)^0.5m^-1V^-1
   CIGD =  0.075 V^-1
   POXEDGE =      1 
   AGIDL = 5.729e-12 ohm^-1
   BGIDL =  3e+08 V/m
   EGIDL =    0.1 V
   AGISL = 5.729e-12 ohm^-1
   BGISL =  3e+08 V/m
   EGISL =    0.1 V
   ALPHA0 =      0 mV^-1
   ALPHA1 =      0 V^-1
   BETA0 =     30 V^-1
   ALPHAII =      0 
   BETAII0 =      0 V^-1
   BETAII1 =      0 
   BETAII2 =    0.1 V
   ESATII =  1e+07 V/m
   LII =  5e-10 V/m
   SII0 =    0.5 V^-1
   SII1 =    0.1 
   SII2 =      0 V
   SIID =      0 V
   EOTACC =  1e-09 m
   DELVFBACC =      0 V
   CFS = 2.56e-11 F/m
   CFD = 2.65e-11 F/m
   COVS = 2.5e-11 F/m
   COVD = 2.5e-11 F/m
   CGSO =      0 F/m
   CGDO =      0 F/m
   CGSL =      0 F/m
   CGDL =      0 F/m
   CKAPPAS =    0.6 V
   CKAPPAD =    0.6 V
   CGBO =      0 F/m
   CGBL =      0 F/m
   CKAPPAB =    0.6 V
   CSDESW =      0 F/m
   CJS = 0.0005 F/m^2
   CJD = 0.0005 F/m^2
   CJSWS =  5e-10 F/m
   CJSWD =  5e-10 F/m
   CJSWGS =      0 F/m
   CJSWGD =      0 F/m
   PBS =      1 V
   PBD =      1 V
   PBSWS =      1 V
   PBSWD =      1 V
   PBSWGS =      1 V
   PBSWGD =      1 V
   MJS, =    0.5 
   MJD =    0.5 
   MJSWS =   0.33 
   MJSWD =   0.33 
   MJSWGS =   0.33 
   MJSWGD =   0.33 
   SJS =      0 
   SJD =      0 
   SJSWS =      0 
   SJSWD =      0 
   SJSWGS =      0 
   SJSWGD =      0 
   MJS2 =  0.125 
   MJD2 =  0.125 
   MJSWS2 =   0.33 
   MJSWD2 =   0.33 
   MJSWGS2 =   0.33 
   MJSWGD2 =   0.33 
   JSS = 0.0001 A/m^2
   JSD = 0.0001 A/m^2
   JSWS =      0 A/m
   JSWD =      0 A/m
   JSWGS =      0 A/m
   JSWGD =      0 A/m
   NJS =      1 
   NJD =      1 
   IJTHSFWD =    0.1 A
   IJTHDFWD =    0.1 A
   IJTHSREV =    0.1 A
   IJTHDREV =    0.1 A
   BVS =     10 V
   BVD =     10 V
   XJBVS =      1 
   XJBVD =      1 
   JTSS =      0 A/m^2
   JTSD =      0 A/m^2
   JTSSWS =      0 A/m
   JTSSWD =      0 A/m
   JTSSWGS =      0 A/m
   JTSSWGD =      0 A/m
   JTWEFF =      0 m
   NJTS =     20 
   NJTSD =     20 
   NJTSSW =     20 
   NJTSSWD =     20 
   NJTSSWG =     20 
   NJTSSWGD =     20 
   VTSS =     10 V
   VTSD =     10 V
   VTSSWS =     10 V
   VTSSWD =     10 V
   VTSSWGS =     10 V
   VTSSWGD =     10 V
   LINTIGEN =      0 m
   NTGEN =      1 
   AIGEN =      0 m^-3V^-1
   BIGEN =      0 m^-3V^-3
   XRCRG1 =     12 
   XRCRG2 =      1 
   NSEG = 5 
   EF =      1 
   EM = 4.1e+07 V/m
   NOIA = 6.25e+39 eV^-1s^1-EFm^-3
   NOIB = 3.125e+24 eV^-1s^1-EFm^-1
   NOIC = 8.75e+07 eV^-1s^1-EFm
   NTNOI =      1 
   TNOM =  300.1 K
   TBGASUB = 0.000702 eV/K
   TBGBSUB =   1108 K
   KT1 =      0 V
   KT1L =      0 Vm
   IIT =   -0.5 
   TII =      0 
   TGIDL = -0.0003 K^-1
   IGT =    2.5 
   TCJ =      0 K^-1
   TCJSW =      0 K^-1
   TCJSWG =      0 K^-1
   TPB =      0 K^-1
   TPBSW =      0 K^-1
   TPBSWG =      0 K^-1
   XTIS =      3 
   XTID =      3 
   XTSS =   0.02 
   XTSD =   0.02 
   XTSSWS =   0.02 
   XTSSWD =   0.02 
   XTSSWGS =   0.02 
   XTSSWGD =   0.02 
   TNJTS =      0 
   TNJTSD =      0 
   TNJTSSW =      0 
   TNJTSSWD =      0 
   TNJTSSWG =      0 
   TNJTSSWGD =      0 
   RTH0 =   0.01 ohm
   CTH0 =  1e-05 F
   WTH0 =      0 m
   LNBODY =      0 
   NNBODY =      0 
   PNBODY =      0 
   LPHIG =      0 
   NPHIG =      0 
   PPHIG =      0 
   LNGATE =      0 
   NNGATE =      0 
   PNGATE =      0 
   LCIT =      0 
   NCIT =      0 
   PCIT =      0 
   LCDSC =      0 
   NCDSC =      0 
   PCDSC =      0 
   LCDSCD =      0 
   NCDSCD =      0 
   PCDSCD =      0 
   LCDSCDR =      0 
   NCDSCDR =      0 
   PCDSCDR =      0 
   LDVT0 =      0 
   NDVT0 =      0 
   PDVT0 =      0 
   LDVT1 =      0 
   NDVT1 =      0 
   PDVT1 =      0 
   LPHIN =      0 
   NPHIN =      0 
   PPHIN =      0 
   LETA0 =      0 
   NETA0 =      0 
   PETA0 =      0 
   LETA0R =      0 
   NETA0R =      0 
   PETA0R =      0 
   LDSUB =      0 
   NDSUB =      0 
   PDSUB =      0 
   LK1RSCE =      0 
   NK1RSCE =      0 
   PK1RSCE =      0 
   LLPE0 =      0 
   NLPE0 =      0 
   PLPE0 =      0 
   LQMFACTOR =      0 
   NQMFACTOR =      0 
   PQMFACTOR =      0 
   LQMTCENIV =      0 
   NQMTCENIV =      0 
   PQMTCENIV =      0 
   LQMTCENCV =      0 
   NQMTCENCV =      0 
   PQMTCENCV =      0 
   LVSAT =      0 
   NVSAT =      0 
   PVSAT =      0 
   LKSATIV =      0 
   NKSATIV =      0 
   PKSATIV =      0 
   LMEXP =      0 
   NMEXP =      0 
   PMEXP =      0 
   LPTWG =      0 
   NPTWG =      0 
   PPTWG =      0 
   LTHETASAT =      0 
   NTHETASAT =      0 
   PTHETASAT =      0 
   LU0 =      0 
   NU0 =      0 
   PU0 =      0 
   LUP =      0 
   NUP =      0 
   PUP =      0 
   LUA =      0 
   NUA =      0 
   PUA =      0 
   LEU =      0 
   NEU =      0 
   PEU =      0 
   LUD =      0 
   NUD =      0 
   PUD =      0 
   LUCS =      0 
   NUCS =      0 
   PUCS =      0 
   LPCLM =      0 
   NPCLM =      0 
   PPCLM =      0 
   LPCLMCV =      0 
   NPCLMCV =      0 
   PPCLMCV =      0 
   LRDSW =      0 
   NRDSW =      0 
   PRDSW =      0 
   LRSW =      0 
   NRSW =      0 
   PRSW =      0 
   LRDW =      0 
   NRDW =      0 
   PRDW =      0 
   LPRWG =      0 
   NPRWG =      0 
   PPRWG =      0 
   LWR =      0 
   NWR =      0 
   PWR =      0 
   LPDIBL1 =      0 
   NPDIBL1 =      0 
   PPDIBL1 =      0 
   LPDIBL2 =      0 
   NPDIBL2 =      0 
   PPDIBL2 =      0 
   LDROUT =      0 
   NDROUT =      0 
   PDROUT =      0 
   LPVAG =      0 
   NPVAG =      0 
   PPVAG =      0 
   LAIGBINV =      0 
   NAIGBINV =      0 
   PAIGBINV =      0 
   LBIGBINV =      0 
   NBIGBINV =      0 
   PBIGBINV =      0 
   LCIGBINV =      0 
   NCIGBINV =      0 
   PCIGBINV =      0 
   LEIGBINV =      0 
   NEIGBINV =      0 
   PEIGBINV =      0 
   LNIGBINV =      0 
   NNIGBINV =      0 
   PNIGBINV =      0 
   LAIGC =      0 
   NAIGC =      0 
   PAIGC =      0 
   LBIGC =      0 
   NBIGC =      0 
   PBIGC =      0 
   LCIGC =      0 
   NCIGC =      0 
   PCIGC =      0 
   LNIGC =      0 
   NNIGC =      0 
   PNIGC =      0 
   LAIGS =      0 
   NAIGS =      0 
   PAIGS =      0 
   LBIGS =      0 
   NBIGS =      0 
   PBIGS =      0 
   LCIGS =      0 
   NCIGS =      0 
   PCIGS =      0 
   LAIGD =      0 
   NAIGD =      0 
   PAIGD =      0 
   LBIGD =      0 
   NBIGD =      0 
   PBIGD =      0 
   LCIGD =      0 
   NCIGD =      0 
   PCIGD =      0 
   LPOXEDGE =      0 
   NPOXEDGE =      0 
   PPOXEDGE =      0 
   LAGIDL =      0 
   NAGIDL =      0 
   PAGIDL =      0 
   LBGIDL =      0 
   NBGIDL =      0 
   PBGIDL =      0 
   LEGIDL =      0 
   NEGIDL =      0 
   PEGIDL =      0 
   LAGISL =      0 
   NAGISL =      0 
   PAGISL =      0 
   LBGISL =      0 
   NBGISL =      0 
   PBGISL =      0 
   LEGISL =      0 
   NEGISL =      0 
   PEGISL =      0 
   LALPHA0 =      0 
   NALPHA0 =      0 
   PALPHA0 =      0 
   LALPHA1 =      0 
   NALPHA1 =      0 
   PALPHA1 =      0 
   LBETA0 =      0 
   NBETA0 =      0 
   PBETA0 =      0 
   LALPHAII =      0 
   NALPHAII =      0 
   PALPHAII =      0 
   LBETAII0 =      0 
   NBETAII0 =      0 
   PBETAII0 =      0 
   LBETAII1 =      0 
   NBETAII1 =      0 
   PBETAII1 =      0 
   LBETAII2 =      0 
   NBETAII2 =      0 
   PBETAII2 =      0 
   LESATII =      0 
   NESATII =      0 
   PESATII =      0 
   LLII =      0 
   NLII =      0 
   PLII =      0 
   LSII0 =      0 
   NSII0 =      0 
   PSII0 =      0 
   LSII1 =      0 
   NSII1 =      0 
   PSII1 =      0 
   LSII2 =      0 
   NSII2 =      0 
   PSII2 =      0 
   LSIID =      0 
   NSIID =      0 
   PSIID =      0 
   LCFS =      0 
   NCFS =      0 
   PCFS =      0 
   LCFD =      0 
   NCFD =      0 
   PCFD =      0 
   LCOVS =      0 
   NCOVS =      0 
   PCOVS =      0 
   LCOVD =      0 
   NCOVD =      0 
   PCOVD =      0 
   LCGSL =      0 
   NCGSL =      0 
   PCGSL =      0 
   LCGDL =      0 
   NCGDL =      0 
   PCGDL =      0 
   LCKAPPAS =      0 
   NCKAPPAS =      0 
   PCKAPPAS =      0 
   LCKAPPAD =      0 
   NCKAPPAD =      0 
   PCKAPPAD =      0 
   LCGBL =      0 
   NCGBL =      0 
   PCGBL =      0 
   LCKAPPAB =      0 
   NCKAPPAB =      0 
   PCKAPPAB =      0 
   LNTGEN =      0 
   NNTGEN =      0 
   PNTGEN =      0 
   LAIGEN =      0 
   NAIGEN =      0 
   PAIGEN =      0 
   LBIGEN =      0 
   NBIGEN =      0 
   PBIGEN =      0 
   LXRCRG1 =      0 
   NXRCRG1 =      0 
   PXRCRG1 =      0 
   LXRCRG2 =      0 
   NXRCRG2 =      0 
   PXRCRG2 =      0 
   LINTNOI =      0 
   NINTNOI =      0 
   PINTNOI =      0 
   LUTE =      0 
   NUTE =      0 
   PUTE =      0 
   LUTL =      0 
   NUTL =      0 
   PUTL =      0 
   LUA1 =      0 
   NUA1 =      0 
   PUA1 =      0 
   LUD1 =      0 
   NUD1 =      0 
   PUD1 =      0 
   LUCSTE =      0 
   NUCSTE =      0 
   PUCSTE =      0 
   LPTWGT =      0 
   NPTWGT =      0 
   PPTWGT =      0 
   LAT =      0 
   NAT =      0 
   PAT =      0 
   LSTTHETASAT =      0 
   NSTTHETASAT =      0 
   PSTTHETASAT =      0 
   LPRT =      0 
   NPRT =      0 
   PPRT =      0 
   LIIT =      0 
   NIIT =      0 
   PIIT =      0 
   LTII =      0 
   NTII =      0 
   PTII =      0 
   LTGIDL =      0 
   NTGIDL =      0 
   PTGIDL =      0 
   LIGT =      0 
   NIGT =      0 
   PIGT =      0 
   L =  2e-08 m
   D =  4e-08 m
   TFIN = 1.2e-08 m
   FPITCH = 4.2e-08 m
   NF = 1 
   NFIN = 1 
   NGCON = 1 
   ASEO =      0 m^2
   ADEO =      0 m^2
   PSEO =      0 m
   PDEO =      0 m
   ASEJ =      0 m^2
   ADEJ =      0 m^2
   PSEJ =      0 m
   PDEJ =      0 m
   CGSP =      0 F
   CGDP =      0 F
   CDSP =      0 F
   NRS =      0 
   NRD =      0 
   LRSD =  2e-08 m
   XL =      0 m
   DELVTRAND =      0 
   U0MULT =      1 
   IDS0MULT =      1 
   Lmin =  1e-08 m
   Lmax =  3e-08 m
   NFINmin = 0 
   NFINmax = 1 
   LVSAT1 =      0 
   NVSAT1 =      0 
   PVSAT1 =      0 
   LETAMOB =      0 
   NETAMOB =      0 
   PETAMOB =      0 
   LPCLMG =      0 
   NPCLMG =      0 
   PPCLMG =      0 
   LVASAT =      0 
   NVASAT =      0 
   PVASAT =      0 
   LAIGBACC =      0 
   NAIGBACC =      0 
   PAIGBACC =      0 
   LBIGBACC =      0 
   NBIGBACC =      0 
   PBIGBACC =      0 
   LCIGBACC =      0 
   NCIGBACC =      0 
   PCIGBACC =      0 
   LNIGBACC =      0 
   NNIGBACC =      0 
   PNIGBACC =      0 
 Model Name: nfet 
 BSIM-MG BULK Model(Level72)
   VERSION = 105.03  
   DEVTYPE = 1 
   BULKMOD = 1  
   COREMOD = 0 
   GEOMOD = 1 
   RDSMOD = 1 
   IGCMOD = 1 
   IGBMOD = 1 
   GIDLMOD = 0 
   IIMOD = 0 
   NQSMOD = 0 
   SHMOD = 0 
   RGATEMOD = 0 
   RGEOMOD = 1 
   CGEOMOD = 2 
   CAPMOD = 0 
   LINT = -1e-09 m
   LL =      0 m^(LLN+1)
   LLN =      1 
   DLC =      0 m
   DLBIN =      0 
   LLC =      0 m^(LLN+1)
   EOT =  1e-09 m
   TOXP = 1.35e-09 m
   EOTBOX = 1.4e-07 m
   HFIN = 2.6e-08 m
   FECH =      1 
   DELTAW =      0 m
   FECHCV =      1 
   DELTAWCV =      0 m
   NBODY =  1e+23 m^-3
   NSD =  3e+26 m^-3
   PHIG =  4.589 eV
   EPSROX =    3.9 
   EPSRSUB =   11.9 
   EASUB =   4.05 eV
   NI0SUB = 1.1e+16 m^-3
   BG0SUB =   1.12 eV
   NC0SUB = 2.86e+25 m^-3
   NGATE =      0 m^-3
   CIT = 1.3e-05 F/m^2
   CDSC =  0.021 F/m^2
   CDSCD =  0.007 F/m^2
   CDSCDR =  0.007 
   DVT0 =   0.01 
   DVT1 =   0.69 
   PHIN =   0.05 V
   ETA0 = 0.7358 
   ETA0R = 0.7358 
   DSUB =    0.9 
   K1RSCE =      0 V^1/2
   LPE0 =  5e-09 m
   DVTSHIFT =      0 
   QMFACTOR =      0 
   QMTCENIV =      0 
   QMTCENCV =      0 
   AQMTCEN =      0 
   BQMTCEN = 1.2e-08 
   ETAQM =   0.54 
   QM0 = 0.001143 
   PQM =   0.66 
   QM0ACC =  0.001 
   PQMACC =   0.66 
   VSAT =  9e+04 
   AVSAT =      0 
   BVSAT =  1e-07 
   VSAT1 =  9e+04 
   AVSAT1 =      0 
   BVSAT1 =  1e-07 
   DELTAVSAT =      1 
   KSATIV =    0.8 
   MEXP =      3 
   AMEXP =      0 
   BMEXP =      1 
   PTWG =      0 
   APTWG =      0 
   BPTWG =  1e-07 
   AT = -0.00156 
   TMEXP =      0 
   PTWGT =  0.004 
   U0 = 0.0448 
   ETAMOB =      2 
   UP =      0 
   LPA =      1 
   UA =    0.3 
   AUA =      0 
   BUA =  1e-07 
   EU =    1.8 
   AEU =      0 
   BEU =  1e-07 
   UD =      0 
   AUD =      0 
   BUD =  5e-08 
   UCS =      0 
   UTE =      0 
   UTL = -0.0015 
   UA1 = 0.001032 
   UD1 =      0 
   UCSTE = -0.00478 
   RDSWMIN =      0 
   RDSW =    100 
   ARDSW =      0 
   BRDSW =  1e-07 
   RSWMIN =      0 
   RSW =      0 
   ARSW =      0 
   BRSW =  1e-07 
   RDWMIN =      0 
   RDW =      0 
   ARDW =      0 
   BRDW =  1e-07 
   PRWG =      0 
   WR =      1 
   PRT =  0.001 
   PDIBL1 =    1.3 
   PDIBL2 = 0.0002 
   DROUT =   1.06 
   PVAG =      1 
   PCLM =    0.2 
   APCLM =      0 
   BPCLM =  1e-07 
   PCLMG =      0 
   VASAT =    0.6 
   PCLMCV =  0.013 
   PCLMGCV =      0 
   VASATCV =    0.2 
   RGEXT =      0 ohm
   RGFIN =  0.001 ohm
   RSHS =      0 ohm
   RSHD =      0 ohm
   HEPI = 9.5e-09 m
   TSILI =  9e-09 m
   RHOC = 1.5e-12 ohm/m^2
   RHORSD =      1 ohm/m
   RHOEXT =      1 ohm/m
   CRATIO =    0.5 
   DELTAPRSD =      0 m
   SDTERM = 0 
   LSP =  4e-09 m
   LDG =  3e-09 m
   EPSRSP =    3.9 
   TGATE =  9e-09 m
   TMASK =      0 m
   ASILIEND =      0 m^2
   ARSDEND =      0 m^2
   PRSDEND =      0 m
   NSDE =  3e+25 m^-3
   RGEOA =      1 
   RGEOB =      0 m^-1
   RGEOC =      0 m^-1
   RGEOD =      0 m^-1
   RGEOE =      0 m^-1
   CGEOA =      1 
   CGEOB =      0 m^-1
   CGEOC =      0 m^-1
   CGEOD =      0 m^-1
   CGEOE =      1 
   AIGBINV = 0.0111 (Fs^2/g)^0.5m^-1
   BIGBINV =   0.03 (Fs^2/g)^0.5m^-1
   CIGBINV =  0.006 V^-1
   EIGBINV =    1.1 V
   NIGBINV =    1.2 
   AIGBACC = 0.0149 
   BIGBACC = 0.000949 
   CIGBACC =  0.075 
   NIGBACC =      3 
   AIGC = 0.0136 (Fs^2/g)^0.5m^-1
   BIGC = 0.00171 (Fs^2/g)^0.5m^-1V^-1
   CIGC =  0.075 V^-1
   NIGC =      1 
   DLCIGS =      0 m
   AIGS = 0.0136 (Fs^2/g)^0.5m^-1
   BIGS = 0.00171 (Fs^2/g)^0.5m^-1V^-1
   CIGS =  0.075 V^-1
   DLCIGD =      0 m
   AIGD = 0.0136 (Fs^2/g)^0.5m^-1
   BIGD = 0.00171 (Fs^2/g)^0.5m^-1V^-1
   CIGD =  0.075 V^-1
   POXEDGE =      1 
   AGIDL = 5.729e-12 ohm^-1
   BGIDL =  3e+08 V/m
   EGIDL =    0.1 V
   AGISL = 5.729e-12 ohm^-1
   BGISL =  3e+08 V/m
   EGISL =    0.1 V
   ALPHA0 =      0 mV^-1
   ALPHA1 =      0 V^-1
   BETA0 =     30 V^-1
   ALPHAII =      0 
   BETAII0 =      0 V^-1
   BETAII1 =      0 
   BETAII2 =    0.1 V
   ESATII =  1e+07 V/m
   LII =  5e-10 V/m
   SII0 =    0.5 V^-1
   SII1 =    0.1 
   SII2 =      0 V
   SIID =      0 V
   EOTACC =  1e-09 m
   DELVFBACC =      0 V
   CFS = 2.56e-11 F/m
   CFD = 2.65e-11 F/m
   COVS = 2.5e-11 F/m
   COVD = 2.5e-11 F/m
   CGSO =      0 F/m
   CGDO =      0 F/m
   CGSL =      0 F/m
   CGDL =      0 F/m
   CKAPPAS =    0.6 V
   CKAPPAD =    0.6 V
   CGBO =      0 F/m
   CGBL =      0 F/m
   CKAPPAB =    0.6 V
   CSDESW =      0 F/m
   CJS = 0.0005 F/m^2
   CJD = 0.0005 F/m^2
   CJSWS =  5e-10 F/m
   CJSWD =  5e-10 F/m
   CJSWGS =      0 F/m
   CJSWGD =      0 F/m
   PBS =      1 V
   PBD =      1 V
   PBSWS =      1 V
   PBSWD =      1 V
   PBSWGS =      1 V
   PBSWGD =      1 V
   MJS, =    0.5 
   MJD =    0.5 
   MJSWS =   0.33 
   MJSWD =   0.33 
   MJSWGS =   0.33 
   MJSWGD =   0.33 
   SJS =      0 
   SJD =      0 
   SJSWS =      0 
   SJSWD =      0 
   SJSWGS =      0 
   SJSWGD =      0 
   MJS2 =  0.125 
   MJD2 =  0.125 
   MJSWS2 =   0.33 
   MJSWD2 =   0.33 
   MJSWGS2 =   0.33 
   MJSWGD2 =   0.33 
   JSS = 0.0001 A/m^2
   JSD = 0.0001 A/m^2
   JSWS =      0 A/m
   JSWD =      0 A/m
   JSWGS =      0 A/m
   JSWGD =      0 A/m
   NJS =      1 
   NJD =      1 
   IJTHSFWD =    0.1 A
   IJTHDFWD =    0.1 A
   IJTHSREV =    0.1 A
   IJTHDREV =    0.1 A
   BVS =     10 V
   BVD =     10 V
   XJBVS =      1 
   XJBVD =      1 
   JTSS =      0 A/m^2
   JTSD =      0 A/m^2
   JTSSWS =      0 A/m
   JTSSWD =      0 A/m
   JTSSWGS =      0 A/m
   JTSSWGD =      0 A/m
   JTWEFF =      0 m
   NJTS =     20 
   NJTSD =     20 
   NJTSSW =     20 
   NJTSSWD =     20 
   NJTSSWG =     20 
   NJTSSWGD =     20 
   VTSS =     10 V
   VTSD =     10 V
   VTSSWS =     10 V
   VTSSWD =     10 V
   VTSSWGS =     10 V
   VTSSWGD =     10 V
   LINTIGEN =      0 m
   NTGEN =      1 
   AIGEN =      0 m^-3V^-1
   BIGEN =      0 m^-3V^-3
   XRCRG1 =     12 
   XRCRG2 =      1 
   NSEG = 5 
   EF =      1 
   EM = 4.1e+07 V/m
   NOIA = 6.25e+39 eV^-1s^1-EFm^-3
   NOIB = 3.125e+24 eV^-1s^1-EFm^-1
   NOIC = 8.75e+07 eV^-1s^1-EFm
   NTNOI =      1 
   TNOM =  300.1 K
   TBGASUB = 0.000702 eV/K
   TBGBSUB =   1108 K
   KT1 =      0 V
   KT1L =      0 Vm
   IIT =   -0.5 
   TII =      0 
   TGIDL = -0.0003 K^-1
   IGT =    2.5 
   TCJ =      0 K^-1
   TCJSW =      0 K^-1
   TCJSWG =      0 K^-1
   TPB =      0 K^-1
   TPBSW =      0 K^-1
   TPBSWG =      0 K^-1
   XTIS =      3 
   XTID =      3 
   XTSS =   0.02 
   XTSD =   0.02 
   XTSSWS =   0.02 
   XTSSWD =   0.02 
   XTSSWGS =   0.02 
   XTSSWGD =   0.02 
   TNJTS =      0 
   TNJTSD =      0 
   TNJTSSW =      0 
   TNJTSSWD =      0 
   TNJTSSWG =      0 
   TNJTSSWGD =      0 
   RTH0 =   0.01 ohm
   CTH0 =  1e-05 F
   WTH0 =      0 m
   LNBODY =      0 
   NNBODY =      0 
   PNBODY =      0 
   LPHIG =      0 
   NPHIG =      0 
   PPHIG =      0 
   LNGATE =      0 
   NNGATE =      0 
   PNGATE =      0 
   LCIT =      0 
   NCIT =      0 
   PCIT =      0 
   LCDSC =      0 
   NCDSC =      0 
   PCDSC =      0 
   LCDSCD =      0 
   NCDSCD =      0 
   PCDSCD =      0 
   LCDSCDR =      0 
   NCDSCDR =      0 
   PCDSCDR =      0 
   LDVT0 =      0 
   NDVT0 =      0 
   PDVT0 =      0 
   LDVT1 =      0 
   NDVT1 =      0 
   PDVT1 =      0 
   LPHIN =      0 
   NPHIN =      0 
   PPHIN =      0 
   LETA0 =      0 
   NETA0 =      0 
   PETA0 =      0 
   LETA0R =      0 
   NETA0R =      0 
   PETA0R =      0 
   LDSUB =      0 
   NDSUB =      0 
   PDSUB =      0 
   LK1RSCE =      0 
   NK1RSCE =      0 
   PK1RSCE =      0 
   LLPE0 =      0 
   NLPE0 =      0 
   PLPE0 =      0 
   LQMFACTOR =      0 
   NQMFACTOR =      0 
   PQMFACTOR =      0 
   LQMTCENIV =      0 
   NQMTCENIV =      0 
   PQMTCENIV =      0 
   LQMTCENCV =      0 
   NQMTCENCV =      0 
   PQMTCENCV =      0 
   LVSAT =      0 
   NVSAT =      0 
   PVSAT =      0 
   LKSATIV =      0 
   NKSATIV =      0 
   PKSATIV =      0 
   LMEXP =      0 
   NMEXP =      0 
   PMEXP =      0 
   LPTWG =      0 
   NPTWG =      0 
   PPTWG =      0 
   LTHETASAT =      0 
   NTHETASAT =      0 
   PTHETASAT =      0 
   LU0 =      0 
   NU0 =      0 
   PU0 =      0 
   LUP =      0 
   NUP =      0 
   PUP =      0 
   LUA =      0 
   NUA =      0 
   PUA =      0 
   LEU =      0 
   NEU =      0 
   PEU =      0 
   LUD =      0 
   NUD =      0 
   PUD =      0 
   LUCS =      0 
   NUCS =      0 
   PUCS =      0 
   LPCLM =      0 
   NPCLM =      0 
   PPCLM =      0 
   LPCLMCV =      0 
   NPCLMCV =      0 
   PPCLMCV =      0 
   LRDSW =      0 
   NRDSW =      0 
   PRDSW =      0 
   LRSW =      0 
   NRSW =      0 
   PRSW =      0 
   LRDW =      0 
   NRDW =      0 
   PRDW =      0 
   LPRWG =      0 
   NPRWG =      0 
   PPRWG =      0 
   LWR =      0 
   NWR =      0 
   PWR =      0 
   LPDIBL1 =      0 
   NPDIBL1 =      0 
   PPDIBL1 =      0 
   LPDIBL2 =      0 
   NPDIBL2 =      0 
   PPDIBL2 =      0 
   LDROUT =      0 
   NDROUT =      0 
   PDROUT =      0 
   LPVAG =      0 
   NPVAG =      0 
   PPVAG =      0 
   LAIGBINV =      0 
   NAIGBINV =      0 
   PAIGBINV =      0 
   LBIGBINV =      0 
   NBIGBINV =      0 
   PBIGBINV =      0 
   LCIGBINV =      0 
   NCIGBINV =      0 
   PCIGBINV =      0 
   LEIGBINV =      0 
   NEIGBINV =      0 
   PEIGBINV =      0 
   LNIGBINV =      0 
   NNIGBINV =      0 
   PNIGBINV =      0 
   LAIGC =      0 
   NAIGC =      0 
   PAIGC =      0 
   LBIGC =      0 
   NBIGC =      0 
   PBIGC =      0 
   LCIGC =      0 
   NCIGC =      0 
   PCIGC =      0 
   LNIGC =      0 
   NNIGC =      0 
   PNIGC =      0 
   LAIGS =      0 
   NAIGS =      0 
   PAIGS =      0 
   LBIGS =      0 
   NBIGS =      0 
   PBIGS =      0 
   LCIGS =      0 
   NCIGS =      0 
   PCIGS =      0 
   LAIGD =      0 
   NAIGD =      0 
   PAIGD =      0 
   LBIGD =      0 
   NBIGD =      0 
   PBIGD =      0 
   LCIGD =      0 
   NCIGD =      0 
   PCIGD =      0 
   LPOXEDGE =      0 
   NPOXEDGE =      0 
   PPOXEDGE =      0 
   LAGIDL =      0 
   NAGIDL =      0 
   PAGIDL =      0 
   LBGIDL =      0 
   NBGIDL =      0 
   PBGIDL =      0 
   LEGIDL =      0 
   NEGIDL =      0 
   PEGIDL =      0 
   LAGISL =      0 
   NAGISL =      0 
   PAGISL =      0 
   LBGISL =      0 
   NBGISL =      0 
   PBGISL =      0 
   LEGISL =      0 
   NEGISL =      0 
   PEGISL =      0 
   LALPHA0 =      0 
   NALPHA0 =      0 
   PALPHA0 =      0 
   LALPHA1 =      0 
   NALPHA1 =      0 
   PALPHA1 =      0 
   LBETA0 =      0 
   NBETA0 =      0 
   PBETA0 =      0 
   LALPHAII =      0 
   NALPHAII =      0 
   PALPHAII =      0 
   LBETAII0 =      0 
   NBETAII0 =      0 
   PBETAII0 =      0 
   LBETAII1 =      0 
   NBETAII1 =      0 
   PBETAII1 =      0 
   LBETAII2 =      0 
   NBETAII2 =      0 
   PBETAII2 =      0 
   LESATII =      0 
   NESATII =      0 
   PESATII =      0 
   LLII =      0 
   NLII =      0 
   PLII =      0 
   LSII0 =      0 
   NSII0 =      0 
   PSII0 =      0 
   LSII1 =      0 
   NSII1 =      0 
   PSII1 =      0 
   LSII2 =      0 
   NSII2 =      0 
   PSII2 =      0 
   LSIID =      0 
   NSIID =      0 
   PSIID =      0 
   LCFS =      0 
   NCFS =      0 
   PCFS =      0 
   LCFD =      0 
   NCFD =      0 
   PCFD =      0 
   LCOVS =      0 
   NCOVS =      0 
   PCOVS =      0 
   LCOVD =      0 
   NCOVD =      0 
   PCOVD =      0 
   LCGSL =      0 
   NCGSL =      0 
   PCGSL =      0 
   LCGDL =      0 
   NCGDL =      0 
   PCGDL =      0 
   LCKAPPAS =      0 
   NCKAPPAS =      0 
   PCKAPPAS =      0 
   LCKAPPAD =      0 
   NCKAPPAD =      0 
   PCKAPPAD =      0 
   LCGBL =      0 
   NCGBL =      0 
   PCGBL =      0 
   LCKAPPAB =      0 
   NCKAPPAB =      0 
   PCKAPPAB =      0 
   LNTGEN =      0 
   NNTGEN =      0 
   PNTGEN =      0 
   LAIGEN =      0 
   NAIGEN =      0 
   PAIGEN =      0 
   LBIGEN =      0 
   NBIGEN =      0 
   PBIGEN =      0 
   LXRCRG1 =      0 
   NXRCRG1 =      0 
   PXRCRG1 =      0 
   LXRCRG2 =      0 
   NXRCRG2 =      0 
   PXRCRG2 =      0 
   LINTNOI =      0 
   NINTNOI =      0 
   PINTNOI =      0 
   LUTE =      0 
   NUTE =      0 
   PUTE =      0 
   LUTL =      0 
   NUTL =      0 
   PUTL =      0 
   LUA1 =      0 
   NUA1 =      0 
   PUA1 =      0 
   LUD1 =      0 
   NUD1 =      0 
   PUD1 =      0 
   LUCSTE =      0 
   NUCSTE =      0 
   PUCSTE =      0 
   LPTWGT =      0 
   NPTWGT =      0 
   PPTWGT =      0 
   LAT =      0 
   NAT =      0 
   PAT =      0 
   LSTTHETASAT =      0 
   NSTTHETASAT =      0 
   PSTTHETASAT =      0 
   LPRT =      0 
   NPRT =      0 
   PPRT =      0 
   LIIT =      0 
   NIIT =      0 
   PIIT =      0 
   LTII =      0 
   NTII =      0 
   PTII =      0 
   LTGIDL =      0 
   NTGIDL =      0 
   PTGIDL =      0 
   LIGT =      0 
   NIGT =      0 
   PIGT =      0 
   L =  2e-08 m
   D =  4e-08 m
   TFIN = 1.2e-08 m
   FPITCH = 4.2e-08 m
   NF = 1 
   NFIN = 1 
   NGCON = 1 
   ASEO =      0 m^2
   ADEO =      0 m^2
   PSEO =      0 m
   PDEO =      0 m
   ASEJ =      0 m^2
   ADEJ =      0 m^2
   PSEJ =      0 m
   PDEJ =      0 m
   CGSP =      0 F
   CGDP =      0 F
   CDSP =      0 F
   NRS =      0 
   NRD =      0 
   LRSD =  2e-08 m
   XL =      0 m
   DELVTRAND =      0 
   U0MULT =      1 
   IDS0MULT =      1 
   Lmin =  1e-08 m
   Lmax =  3e-08 m
   NFINmin = 0 
   NFINmax = 1 
   LVSAT1 =      0 
   NVSAT1 =      0 
   PVSAT1 =      0 
   LETAMOB =      0 
   NETAMOB =      0 
   PETAMOB =      0 
   LPCLMG =      0 
   NPCLMG =      0 
   PPCLMG =      0 
   LVASAT =      0 
   NVASAT =      0 
   PVASAT =      0 
   LAIGBACC =      0 
   NAIGBACC =      0 
   PAIGBACC =      0 
   LBIGBACC =      0 
   NBIGBACC =      0 
   PBIGBACC =      0 
   LCIGBACC =      0 
   NCIGBACC =      0 
   PCIGBACC =      0 
   LNIGBACC =      0 
   NNIGBACC =      0 
   PNIGBACC =      0 
  **info** (ptm16lstp.sp:15) DC voltage reset to initial transient source value              in source        0:vin_0               new dc=  0.8500D+00
  
 **warning**  No DC path to ground from node        0:outin_40         defined in subckt 0               ; Connected by HSPICE with gdcpath


      
 **info** set option symb=1 internally to help for convergence.
 *****************************************************************
 ******  option summary
 ******
 runlvl  = 3         bypass  = 2         
  Opening plot unit= 15
 file=ptm16lstp.pa0                                                            

1****** HSPICE -- F-2011.09-SP2 64-BIT (Feb 27 2012) linux ******               
 ******  
 $this uut was automatically generated by:

  ******  operating point information tnom=  25.000 temp=  25.000 *****
 ***** operating point status is voltage   simulation time is     0.     
     node    =voltage       node    =voltage       node    =voltage

 + 0:inb_0   = 850.0000m  0:inb_1   = 850.0000m  0:inb_2   = 850.0000m
 + 0:outb_00 = 849.9993m  0:outb_10 = 849.9993m  0:outb_20 = 849.9993m
 + 0:outin_00= 575.7482n  0:outin_01= 575.7482n  0:outin_02= 575.7482n
 + 0:outin_10= 849.9994m  0:outin_11= 849.9994m  0:outin_12= 849.9994m
 + 0:outin_20= 575.7586n  0:outin_21= 575.7586n  0:outin_22= 575.7586n
 + 0:outin_30= 849.9994m  0:outin_31= 849.9994m  0:outin_32= 849.9994m
 + 0:outin_40=   4.1909m  0:outin_41=   4.1909m  0:outin_42=   4.1909m
 + 0:vdd     = 850.0000m

 ******  
 $this uut was automatically generated by:

  ******  transient analysis tnom=  25.000 temp=  25.000 *****
 trf_delay_001=   5.1434p  targ=  38.6192p   trig=  33.4758p
 tfr_delay_001=   5.4624p  targ=   1.0867n   trig=   1.0812n
 trf_delay_002=   5.1035p  targ=   2.0361n   trig=   2.0310n
 tfr_delay_002=   5.4670p  targ=   3.0867n   trig=   3.0813n
 trf_delay_003=   4.9364p  targ=   4.0387n   trig=   4.0338n
 tfr_delay_003=   5.0945p  targ=   5.0863n   trig=   5.0812n
 trf_delay_004=   4.9597p  targ=   6.0387n   trig=   6.0337n
 tfr_delay_004=   5.1482p  targ=   7.0883n   trig=   7.0832n
 trf_delay_101=   3.9250p  targ=   1.0906n   trig=   1.0867n
 tfr_delay_101=   4.3477p  targ=  42.9669p   trig=  38.6192p
 trf_delay_102=   3.8470p  targ=   3.0906n   trig=   3.0867n
 tfr_delay_102=   3.6770p  targ=   2.0398n   trig=   2.0361n
 trf_delay_103=   4.7910p  targ=   5.0911n   trig=   5.0863n
 tfr_delay_103=   4.0714p  targ=   4.0428n   trig=   4.0387n
 trf_delay_104=   3.6722p  targ=   7.0920n   trig=   7.0883n
 tfr_delay_104=   4.0088p  targ=   6.0427n   trig=   6.0387n
 trf_delay_201=   1.8406p  targ=  44.8075p   trig=  42.9669p
 tfr_delay_201=   2.2204p  targ=   1.0928n   trig=   1.0906n
 trf_delay_202=   1.9930p  targ=   2.0418n   trig=   2.0398n
 tfr_delay_202=   2.1987p  targ=   3.0928n   trig=   3.0906n
 trf_delay_203=   1.8371p  targ=   4.0446n   trig=   4.0428n
 tfr_delay_203=   3.1243p  targ=   5.0942n   trig=   5.0911n
 trf_delay_204=-944.1942p  targ=   5.0985n   trig=   6.0427n
 tfr_delay_204=  -1.9933n  targ=   5.0988n   trig=   7.0920n
 trf_delay_011=   5.1434p  targ=  38.6192p   trig=  33.4758p
 tfr_delay_011=   5.1635p  targ=   2.0884n   trig=   2.0832n
 trf_delay_012=   4.9364p  targ=   4.0387n   trig=   4.0338n
 tfr_delay_012=   5.3566p  targ=   6.0883n   trig=   6.0830n
 trf_delay_111=   4.2474p  targ=   2.0926n   trig=   2.0884n
 tfr_delay_111=   4.3477p  targ=  42.9669p   trig=  38.6192p
 trf_delay_112=   4.1362p  targ=   6.0925n   trig=   6.0883n
 tfr_delay_112=   4.0714p  targ=   4.0428n   trig=   4.0387n
 trf_delay_211=   1.8406p  targ=  44.8075p   trig=  42.9669p
 tfr_delay_211=   1.2661p  targ=   2.0939n   trig=   2.0926n
 trf_delay_212=   1.8371p  targ=   4.0446n   trig=   4.0428n
 tfr_delay_212=   2.6863p  targ=   6.0952n   trig=   6.0925n
 trf_delay_021=   5.1434p  targ=  38.6192p   trig=  33.4758p
 tfr_delay_021=   5.3632p  targ=   4.0876n   trig=   4.0822n
 trf_delay_121=   3.6939p  targ=   4.0913n   trig=   4.0876n
 tfr_delay_121=   4.3477p  targ=  42.9669p   trig=  38.6192p
 trf_delay_221=   1.8406p  targ=  44.8075p   trig=  42.9669p
 tfr_delay_221=   2.3379p  targ=   4.0936n   trig=   4.0913n
x

        time    voltage      voltage    
                 outin_00     outin_10  
    0.          575.7482n    849.9994m  
   10.00000p     -4.3686m    850.0185m  
   20.00000p     20.1002m    851.0852m  
   30.00000p    263.7726m    844.2688m  
   40.00000p    755.4521m    281.8318m  
   50.00000p    842.8221m      1.1030m  
   60.00000p    850.0025m     -9.7589u  
   70.00000p    849.9989m      4.9517u  
   80.00000p    849.9987m    -13.5984u  
   90.00000p    849.9995m      0.       
  100.00000p    850.0004m     13.3361u  
  110.00000p    850.0002m     12.2486u  
  120.00000p    849.9997m      5.6719u  
  130.00000p    849.9991m   -904.6895n  
  140.00000p    849.9986m     -7.4813u  
  150.00000p    849.9980m    -14.0580u  
  160.00000p    849.9981m    -13.0457u  
  170.00000p    849.9984m     -9.6992u  
  180.00000p    849.9987m     -6.3528u  
  190.00000p    849.9991m     -3.0064u  
  200.00000p    849.9994m      0.       
  210.00000p    849.9997m      3.6865u  
  220.00000p    850.0000m      7.0329u  
  230.00000p    850.0003m     10.3793u  
  240.00000p    850.0006m     13.7258u  
  250.00000p    850.0009m     16.4703u  
  260.00000p    850.0007m     14.4796u  
  270.00000p    850.0005m     12.4888u  
  280.00000p    850.0003m     10.4981u  
  290.00000p    850.0001m      8.5074u  
  300.00000p    849.9999m      6.5167u  
  310.00000p    849.9997m      4.5260u  
  320.00000p    849.9995m      2.5352u  
  330.00000p    849.9993m    544.5269n  
  340.00000p    849.9991m     -1.4462u  
  350.00000p    849.9989m     -3.4369u  
  360.00000p    849.9987m     -5.4276u  
  370.00000p    849.9985m     -7.4183u  
  380.00000p    849.9983m     -9.4091u  
  390.00000p    849.9981m    -11.3998u  
  400.00000p    849.9979m    -13.3905u  
  410.00000p    849.9977m    -15.3812u  
  420.00000p    849.9979m    -14.2577u  
  430.00000p    849.9980m    -13.0504u  
  440.00000p    849.9981m    -11.8431u  
  450.00000p    849.9982m    -10.6358u  
  460.00000p    849.9984m     -9.4284u  
  470.00000p    849.9985m     -8.2211u  
  480.00000p    849.9986m     -7.0138u  
  490.00000p    849.9987m     -5.8065u  
  500.00000p    849.9988m     -4.5991u  
  510.00000p    849.9990m     -3.3918u  
  520.00000p    849.9991m     -2.1845u  
  530.00000p    849.9992m   -977.1823n  
  540.00000p    849.9993m      0.       
  550.00000p    849.9995m      1.4375u  
  560.00000p    849.9996m      2.6448u  
  570.00000p    849.9997m      3.8521u  
  580.00000p    849.9998m      5.0594u  
  590.00000p    849.9999m      6.2667u  
  600.00000p    850.0001m      7.4741u  
  610.00000p    850.0002m      8.6814u  
  620.00000p    850.0003m      9.8887u  
  630.00000p    850.0004m     11.0960u  
  640.00000p    850.0006m     12.3034u  
  650.00000p    850.0007m     13.5107u  
  660.00000p    850.0008m     14.7180u  
  670.00000p    850.0009m     15.9253u  
  680.00000p    850.0010m     16.2124u  
  690.00000p    850.0009m     15.3589u  
  700.00000p    850.0008m     14.5053u  
  710.00000p    850.0007m     13.6518u  
  720.00000p    850.0006m     12.7982u  
  730.00000p    850.0005m     11.9447u  
  740.00000p    850.0004m     11.0911u  
  750.00000p    850.0003m     10.2376u  
  760.00000p    850.0002m      9.3840u  
  770.00000p    850.0002m      8.5305u  
  780.00000p    850.0001m      7.6769u  
  790.00000p    850.0000m      6.8234u  
  800.00000p    849.9999m      5.9698u  
  810.00000p    849.9998m      5.1163u  
  820.00000p    849.9997m      4.2628u  
  830.00000p    849.9996m      3.4092u  
  840.00000p    849.9995m      2.5557u  
  850.00000p    849.9995m      1.7021u  
  860.00000p    849.9994m    848.5648n  
  870.00000p    849.9993m      0.       
  880.00000p    849.9992m   -858.5296n  
  890.00000p    849.9991m     -1.7121u  
  900.00000p    849.9990m     -2.5656u  
  910.00000p    849.9989m     -3.4192u  
  920.00000p    849.9988m     -4.2727u  
  930.00000p    849.9987m     -5.1263u  
  940.00000p    849.9987m     -5.9798u  
  950.00000p    849.9986m     -6.8334u  
  960.00000p    849.9985m     -7.6869u  
  970.00000p    849.9984m     -8.5405u  
  980.00000p    849.9983m     -9.3940u  
  990.00000p    849.9982m    -10.2475u  
    1.00000n    849.9981m    -11.1011u  
    1.01000n    849.9980m    -11.9546u  
    1.02000n    849.9980m    -12.8082u  
    1.03000n    849.9979m    -13.6617u  
    1.04000n    849.9978m    -14.5153u  
    1.05000n    849.9977m    -15.3688u  
    1.06000n    765.8854m   -856.0424u  
    1.07000n    681.7731m     -1.6967m  
    1.08000n    467.2927m     68.6780m  
    1.09000n     33.5134m    750.3210m  
    1.10000n      4.5618m    849.3839m  
    1.11000n   -786.1921n    850.0237m  
    1.12000n      2.6748u    850.0006m  
    1.13000n      8.5336u    850.0184m  
    1.14000n    733.6941n    850.0006m  
    1.15000n     -7.0663u    849.9828m  
    1.16000n     -9.3398u    849.9775m  
    1.17000n     -6.1736u    849.9844m  
    1.18000n     -3.0074u    849.9912m  
    1.19000n      0.         849.9981m  
    1.20000n      3.3250u    850.0050m  
    1.21000n      6.4912u    850.0119m  
    1.22000n      9.6574u    850.0188m  
    1.23000n     11.5605u    850.0229m  
    1.24000n     10.3098u    850.0203m  
    1.25000n      9.0590u    850.0176m  
    1.26000n      7.8083u    850.0149m  
    1.27000n      6.5576u    850.0122m  
    1.28000n      5.3068u    850.0096m  
    1.29000n      4.0561u    850.0069m  
    1.30000n      2.8054u    850.0042m  
    1.31000n      1.5546u    850.0016m  
    1.32000n      0.         849.9989m  
    1.33000n   -946.8458n    849.9962m  
    1.34000n     -2.1976u    849.9935m  
    1.35000n     -3.4483u    849.9909m  
    1.36000n     -4.6991u    849.9882m  
    1.37000n     -5.9498u    849.9855m  
    1.38000n     -7.2005u    849.9829m  
    1.39000n     -8.4513u    849.9802m  
    1.40000n     -9.7020u    849.9775m  
    1.41000n    -10.5712u    849.9757m  
    1.42000n     -9.9528u    849.9770m  
    1.43000n     -9.3343u    849.9783m  
    1.44000n     -8.7158u    849.9796m  
    1.45000n     -8.0974u    849.9809m  
    1.46000n     -7.4789u    849.9822m  
    1.47000n     -6.8605u    849.9835m  
    1.48000n     -6.2420u    849.9848m  
    1.49000n     -5.6236u    849.9861m  
    1.50000n     -5.0051u    849.9875m  
    1.51000n     -4.3867u    849.9888m  
    1.52000n     -3.7682u    849.9901m  
    1.53000n     -3.1498u    849.9914m  
    1.54000n     -2.5313u    849.9927m  
    1.55000n     -1.9129u    849.9940m  
    1.56000n     -1.2944u    849.9953m  
    1.57000n   -675.9604n    849.9966m  
    1.58000n      0.         849.9980m  
    1.59000n    560.9452n    849.9993m  
    1.60000n      1.1794u    850.0006m  
    1.61000n      1.7979u    850.0019m  
    1.62000n      2.4163u    850.0032m  
    1.63000n      3.0348u    850.0045m  
    1.64000n      3.6532u    850.0058m  
    1.65000n      4.2717u    850.0071m  
    1.66000n      4.8901u    850.0084m  
    1.67000n      5.5086u    850.0098m  
    1.68000n      6.1270u    850.0111m  
    1.69000n      6.7455u    850.0124m  
    1.70000n      7.3639u    850.0137m  
    1.71000n      7.9824u    850.0150m  
    1.72000n      8.6008u    850.0163m  
    1.73000n      9.2193u    850.0176m  
    1.74000n      9.8377u    850.0189m  
    1.75000n     10.4562u    850.0202m  
    1.76000n     11.0746u    850.0216m  
    1.77000n     11.6931u    850.0229m  
    1.78000n     11.0230u    850.0215m  
    1.79000n     10.0397u    850.0194m  
    1.80000n      9.0564u    850.0173m  
    1.81000n      8.0731u    850.0152m  
    1.82000n      7.0898u    850.0132m  
    1.83000n      6.1065u    850.0111m  
    1.84000n      5.1232u    850.0090m  
    1.85000n      4.1399u    850.0070m  
    1.86000n      3.1566u    850.0049m  
    1.87000n      2.1733u    850.0028m  
    1.88000n      1.1900u    850.0007m  
    1.89000n      0.         849.9987m  
    1.90000n   -776.6155n    849.9966m  
    1.91000n     -1.7599u    849.9945m  
    1.92000n     -2.7432u    849.9924m  
    1.93000n     -3.7265u    849.9904m  
    1.94000n     -4.7098u    849.9883m  
    1.95000n     -5.6931u    849.9862m  
    1.96000n     -6.6764u    849.9842m  
    1.97000n     -7.6597u    849.9821m  
    1.98000n     -8.6430u    849.9800m  
    1.99000n     -9.6264u    849.9779m  
    2.00000n    -10.6097u    849.9759m  
    2.01000n     -4.5365m    849.9391m  
    2.02000n    105.9843m    810.7065m  
    2.03000n    392.5093m    709.1328m  
    2.04000n    775.3888m    120.4848m  
    2.05000n    844.0805m    527.0750u  
    2.06000n    850.0278m    -21.7367u  
    2.07000n    850.0008m     -9.4303u  
    2.08000n    850.0060m     -9.6643u  
    2.09000n    849.9973m    -10.7165u  
    2.10000n    850.0019m      4.1546u  
    2.11000n    849.9994m    610.5987n  
    2.12000n    849.9993m    524.3135n  
    2.13000n    849.9994m    575.7570n  
    2.14000n    849.9994m    627.2005n  
    2.15000n    849.9994m    602.4530n  
    2.16000n    849.9994m    575.9662n  
    2.17000n    849.9993m    549.4793n  
    2.18000n    849.9993m    523.3839n  
    2.19000n    849.9993m    535.5790n  
    2.20000n    849.9993m    547.7742n  
    2.21000n    849.9993m    559.9693n  
    2.22000n    849.9993m    572.1644n  
    2.23000n    849.9994m    584.3595n  
    2.24000n    849.9994m    596.5546n  
    2.25000n    849.9994m    608.7497n  
    2.26000n    849.9994m    620.9448n  
    2.27000n    849.9994m    624.9206n  
    2.28000n    849.9994m    618.3674n  
    2.29000n    849.9994m    611.8142n  
    2.30000n    849.9994m    605.2610n  
    2.31000n    849.9994m    598.7078n  
    2.32000n    849.9994m    592.1546n  
    2.33000n    849.9994m    585.6014n  
    2.34000n    849.9994m    579.0482n  
    2.35000n    849.9993m    572.4950n  
    2.36000n    849.9993m    565.9418n  
    2.37000n    849.9993m    559.3886n  
    2.38000n    849.9993m    552.8354n  
    2.39000n    849.9993m    546.2822n  
    2.40000n    849.9993m    539.7290n  
    2.41000n    849.9993m    533.1757n  
    2.42000n    849.9993m    526.6225n  
    2.43000n    849.9993m    525.5739n  
    2.44000n    849.9993m    529.4380n  
    2.45000n    849.9993m    533.3020n  
    2.46000n    849.9993m    537.1661n  
    2.47000n    849.9993m    541.0302n  
    2.48000n    849.9993m    544.8942n  
    2.49000n    849.9993m    548.7583n  
    2.50000n    849.9993m    552.6224n  
    2.51000n    849.9993m    556.4864n  
    2.52000n    849.9993m    560.3505n  
    2.53000n    849.9993m    564.2146n  
    2.54000n    849.9993m    568.0787n  
    2.55000n    849.9993m    571.9427n  
    2.56000n    849.9994m    575.8068n  
    2.57000n    849.9994m    579.6709n  
    2.58000n    849.9994m    583.5349n  
    2.59000n    849.9994m    587.3990n  
    2.60000n    849.9994m    591.2631n  
    2.61000n    849.9994m    595.1271n  
    2.62000n    849.9994m    598.9912n  
    2.63000n    849.9994m    602.8553n  
    2.64000n    849.9994m    606.7193n  
    2.65000n    849.9994m    610.5834n  
    2.66000n    849.9994m    614.4475n  
    2.67000n    849.9994m    618.3115n  
    2.68000n    849.9994m    622.1756n  
    2.69000n    849.9994m    626.0397n  
    2.70000n    849.9994m    625.9312n  
    2.71000n    849.9994m    623.0083n  
    2.72000n    849.9994m    620.0855n  
    2.73000n    849.9994m    617.1626n  
    2.74000n    849.9994m    614.2397n  
    2.75000n    849.9994m    611.3169n  
    2.76000n    849.9994m    608.3940n  
    2.77000n    849.9994m    605.4712n  
    2.78000n    849.9994m    602.5483n  
    2.79000n    849.9994m    599.6254n  
    2.80000n    849.9994m    596.7026n  
    2.81000n    849.9994m    593.7797n  
    2.82000n    849.9994m    590.8569n  
    2.83000n    849.9994m    587.9340n  
    2.84000n    849.9994m    585.0111n  
    2.85000n    849.9994m    582.0883n  
    2.86000n    849.9994m    579.1654n  
    2.87000n    849.9994m    576.2426n  
    2.88000n    849.9993m    573.3197n  
    2.89000n    849.9993m    570.3969n  
    2.90000n    849.9993m    567.4740n  
    2.91000n    849.9993m    564.5511n  
    2.92000n    849.9993m    561.6283n  
    2.93000n    849.9993m    558.7054n  
    2.94000n    849.9993m    555.7826n  
    2.95000n    849.9993m    552.8597n  
    2.96000n    849.9993m    549.9368n  
    2.97000n    849.9993m    547.0140n  
    2.98000n    849.9993m    544.0911n  
    2.99000n    849.9993m    541.1683n  
    3.00000n    849.9993m    538.2454n  
    3.01000n    849.9993m    535.3225n  
    3.02000n    849.9993m    532.3997n  
    3.03000n    849.9993m    529.4768n  
    3.04000n    849.9993m    526.5540n  
    3.05000n    849.9993m    523.6311n  
    3.06000n    765.8863m   -846.4631u  
    3.07000n    681.7732m     -1.6934m  
    3.08000n    468.4275m     60.9411m  
    3.09000n     33.1858m    750.8170m  
    3.10000n      4.6918m    849.6343m  
    3.11000n     -4.2474u    850.0053m  
    3.12000n     -3.1027u    850.0108m  
    3.13000n     -2.2386u    850.0072m  
    3.14000n      2.8838u    849.9919m  
    3.15000n      5.5005u    849.9841m  
    3.16000n      3.7946u    849.9895m  
    3.17000n      2.0888u    849.9948m  
    3.18000n      0.         850.0002m  
    3.19000n     -1.3230u    850.0055m  
    3.20000n     -3.0288u    850.0109m  
    3.21000n     -4.3855u    850.0151m  
    3.22000n     -3.7334u    850.0130m  
    3.23000n     -3.0813u    850.0110m  
    3.24000n     -2.4292u    850.0089m  
    3.25000n     -1.7771u    850.0068m  
    3.26000n     -1.1250u    850.0047m  
    3.27000n      0.         850.0026m  
    3.28000n      0.         850.0005m  
    3.29000n    831.2481n    849.9984m  
    3.30000n      1.4833u    849.9964m  
    3.31000n      2.1354u    849.9943m  
    3.32000n      2.7875u    849.9922m  
    3.33000n      3.4396u    849.9901m  
    3.34000n      4.0917u    849.9880m  
    3.35000n      4.7438u    849.9859m  
    3.36000n      5.3959u    849.9839m  
    3.37000n      5.1468u    849.9847m  
    3.38000n      4.8255u    849.9857m  
    3.39000n      4.5043u    849.9867m  
    3.40000n      4.1830u    849.9878m  
    3.41000n      3.8618u    849.9888m  
    3.42000n      3.5405u    849.9898m  
    3.43000n      3.2193u    849.9909m  
    3.44000n      2.8980u    849.9919m  
    3.45000n      2.5768u    849.9929m  
    3.46000n      2.2555u    849.9940m  
    3.47000n      1.9343u    849.9950m  
    3.48000n      1.6131u    849.9961m  
    3.49000n      1.2918u    849.9971m  
    3.50000n    970.5587n    849.9981m  
    3.51000n    649.3128n    849.9992m  
    3.52000n      0.         850.0002m  
    3.53000n      0.         850.0012m  
    3.54000n      0.         850.0023m  
    3.55000n   -635.6707n    850.0033m  
    3.56000n   -956.9166n    850.0043m  
    3.57000n     -1.2782u    850.0054m  
    3.58000n     -1.5994u    850.0064m  
    3.59000n     -1.9207u    850.0074m  
    3.60000n     -2.2419u    850.0085m  
    3.61000n     -2.5631u    850.0095m  
    3.62000n     -2.8844u    850.0106m  
    3.63000n     -3.2056u    850.0116m  
    3.64000n     -3.5269u    850.0126m  
    3.65000n     -3.8481u    850.0137m  
    3.66000n     -4.1694u    850.0147m  
    3.67000n     -3.9458u    850.0140m  
    3.68000n     -3.6665u    850.0131m  
    3.69000n     -3.3872u    850.0122m  
    3.70000n     -3.1079u    850.0113m  
    3.71000n     -2.8286u    850.0103m  
    3.72000n     -2.5493u    850.0094m  
    3.73000n     -2.2700u    850.0085m  
    3.74000n     -1.9907u    850.0076m  
    3.75000n     -1.7114u    850.0067m  
    3.76000n     -1.4321u    850.0058m  
    3.77000n     -1.1529u    850.0049m  
    3.78000n   -873.5608n    850.0040m  
    3.79000n   -594.2664n    850.0031m  
    3.80000n      0.         850.0022m  
    3.81000n      0.         850.0013m  
    3.82000n      0.         850.0004m  
    3.83000n    522.9111n    849.9995m  
    3.84000n    802.2055n    849.9986m  
    3.85000n      1.0815u    849.9977m  
    3.86000n      1.3608u    849.9968m  
    3.87000n      1.6401u    849.9959m  
    3.88000n      1.9194u    849.9950m  
    3.89000n      2.1987u    849.9941m  
    3.90000n      2.4780u    849.9932m  
    3.91000n      2.7573u    849.9922m  
    3.92000n      3.0366u    849.9913m  
    3.93000n      3.3159u    849.9904m  
    3.94000n      3.5951u    849.9895m  
    3.95000n      3.8744u    849.9886m  
    3.96000n      4.1537u    849.9877m  
    3.97000n      4.4330u    849.9868m  
    3.98000n      4.7123u    849.9859m  
    3.99000n      4.9916u    849.9850m  
    4.00000n      5.2709u    849.9841m  
    4.01000n     -4.4220m    849.9293m  
    4.02000n      5.2341m    850.6261m  
    4.03000n    232.3942m    861.9570m  
    4.04000n    744.3461m    273.2217m  
    4.05000n    842.8763m    541.1965u  
    4.06000n    850.0004m    -12.8961u  
    4.07000n    850.0011m     25.7140u  
    4.08000n    849.9970m    -16.4208u  
    4.09000n    849.9971m     -7.8879u  
    4.10000n    849.9993m      0.       
    4.11000n    849.9994m    575.9716n  
    4.12000n    849.9994m    575.7588n  
    4.13000n    849.9994m    575.7586n  
    4.14000n    849.9994m    575.7586n  
    4.15000n    849.9994m    575.7586n  
    4.16000n    849.9994m    575.7586n  
    4.17000n    849.9994m    575.7586n  
    4.18000n    849.9994m    575.7586n  
    4.19000n    849.9994m    575.7586n  
    4.20000n    849.9994m    575.7586n  
    4.21000n    849.9994m    575.7586n  
    4.22000n    849.9994m    575.7586n  
    4.23000n    849.9994m    575.7586n  
    4.24000n    849.9994m    575.7586n  
    4.25000n    849.9994m    575.7586n  
    4.26000n    849.9994m    575.7586n  
    4.27000n    849.9994m    575.7586n  
    4.28000n    849.9994m    575.7586n  
    4.29000n    849.9994m    575.7586n  
    4.30000n    849.9994m    575.7586n  
    4.31000n    849.9994m    575.7586n  
    4.32000n    849.9994m    575.7586n  
    4.33000n    849.9994m    575.7586n  
    4.34000n    849.9994m    575.7586n  
    4.35000n    849.9994m    575.7586n  
    4.36000n    849.9994m    575.7586n  
    4.37000n    849.9994m    575.7586n  
    4.38000n    849.9994m    575.7586n  
    4.39000n    849.9994m    575.7586n  
    4.40000n    849.9994m    575.7586n  
    4.41000n    849.9994m    575.7586n  
    4.42000n    849.9994m    575.7586n  
    4.43000n    849.9994m    575.7586n  
    4.44000n    849.9994m    575.7586n  
    4.45000n    849.9994m    575.7586n  
    4.46000n    849.9994m    575.7586n  
    4.47000n    849.9994m    575.7586n  
    4.48000n    849.9994m    575.7586n  
    4.49000n    849.9994m    575.7586n  
    4.50000n    849.9994m    575.7586n  
    4.51000n    849.9994m    575.7586n  
    4.52000n    849.9994m    575.7586n  
    4.53000n    849.9994m    575.7586n  
    4.54000n    849.9994m    575.7586n  
    4.55000n    849.9994m    575.7586n  
    4.56000n    849.9994m    575.7586n  
    4.57000n    849.9994m    575.7586n  
    4.58000n    849.9994m    575.7586n  
    4.59000n    849.9994m    575.7586n  
    4.60000n    849.9994m    575.7586n  
    4.61000n    849.9994m    575.7586n  
    4.62000n    849.9994m    575.7586n  
    4.63000n    849.9994m    575.7586n  
    4.64000n    849.9994m    575.7586n  
    4.65000n    849.9994m    575.7586n  
    4.66000n    849.9994m    575.7586n  
    4.67000n    849.9994m    575.7586n  
    4.68000n    849.9994m    575.7586n  
    4.69000n    849.9994m    575.7586n  
    4.70000n    849.9994m    575.7586n  
    4.71000n    849.9994m    575.7586n  
    4.72000n    849.9994m    575.7586n  
    4.73000n    849.9994m    575.7586n  
    4.74000n    849.9994m    575.7586n  
    4.75000n    849.9994m    575.7586n  
    4.76000n    849.9994m    575.7586n  
    4.77000n    849.9994m    575.7586n  
    4.78000n    849.9994m    575.7586n  
    4.79000n    849.9994m    575.7586n  
    4.80000n    849.9994m    575.7586n  
    4.81000n    849.9994m    575.7586n  
    4.82000n    849.9994m    575.7586n  
    4.83000n    849.9994m    575.7586n  
    4.84000n    849.9994m    575.7586n  
    4.85000n    849.9994m    575.7586n  
    4.86000n    849.9994m    575.7586n  
    4.87000n    849.9994m    575.7586n  
    4.88000n    849.9994m    575.7586n  
    4.89000n    849.9994m    575.7586n  
    4.90000n    849.9994m    575.7586n  
    4.91000n    849.9994m    575.7586n  
    4.92000n    849.9994m    575.7586n  
    4.93000n    849.9994m    575.7586n  
    4.94000n    849.9994m    575.7586n  
    4.95000n    849.9994m    575.7586n  
    4.96000n    849.9994m    575.7586n  
    4.97000n    849.9994m    575.7586n  
    4.98000n    849.9994m    575.7586n  
    4.99000n    849.9994m    575.7586n  
    5.00000n    849.9994m    575.7586n  
    5.01000n    849.9994m    575.7586n  
    5.02000n    849.9994m    575.7586n  
    5.03000n    849.9994m    575.7586n  
    5.04000n    849.9994m    575.7586n  
    5.05000n    849.9994m    575.7586n  
    5.06000n    856.1015m     51.8102u  
    5.07000n    757.5880m     -1.9686m  
    5.08000n    477.8179m     45.8383m  
    5.09000n     60.1436m    653.2839m  
    5.10000n     94.8148m      1.7956   
    5.11000n     -1.5356m    853.2970m  
    5.12000n      4.8595u    850.0073m  
    5.13000n     -3.3338u    849.9907m  
    5.14000n     -8.1462u    849.9799m  
    5.15000n      1.8692u    850.0023m  
    5.16000n     11.8845u    850.0247m  
    5.17000n     11.3680u    850.0235m  
    5.18000n      6.6469u    850.0130m  
    5.19000n      1.9257u    850.0024m  
    5.20000n     -2.7955u    849.9918m  
    5.21000n     -7.5166u    849.9812m  
    5.22000n    -12.2378u    849.9706m  
    5.23000n    -12.0132u    849.9711m  
    5.24000n     -9.7950u    849.9761m  
    5.25000n     -7.5767u    849.9811m  
    5.26000n     -5.3585u    849.9861m  
    5.27000n     -3.1403u    849.9910m  
    5.28000n   -922.0271n    849.9960m  
    5.29000n      1.2962u    850.0010m  
    5.30000n      3.5144u    850.0060m  
    5.31000n      5.7327u    850.0109m  
    5.32000n      7.9509u    850.0159m  
    5.33000n     10.1691u    850.0209m  
    5.34000n     12.3874u    850.0259m  
    5.35000n     14.6056u    850.0308m  
    5.36000n     13.5731u    850.0285m  
    5.37000n     12.3283u    850.0257m  
    5.38000n     11.0835u    850.0229m  
    5.39000n      9.8387u    850.0201m  
    5.40000n      8.5939u    850.0173m  
    5.41000n      7.3491u    850.0145m  
    5.42000n      6.1043u    850.0118m  
    5.43000n      4.8595u    850.0090m  
    5.44000n      3.6147u    850.0062m  
    5.45000n      2.3699u    850.0034m  
    5.46000n      1.1251u    850.0006m  
    5.47000n      0.         849.9978m  
    5.48000n     -1.3645u    849.9950m  
    5.49000n     -2.6093u    849.9922m  
    5.50000n     -3.8541u    849.9894m  
    5.51000n     -5.0989u    849.9866m  
    5.52000n     -6.3437u    849.9838m  
    5.53000n     -7.5885u    849.9810m  
    5.54000n     -8.8333u    849.9782m  
    5.55000n    -10.0781u    849.9754m  
    5.56000n    -11.3229u    849.9727m  
    5.57000n    -12.5677u    849.9699m  
    5.58000n    -13.4718u    849.9678m  
    5.59000n    -12.8000u    849.9693m  
    5.60000n    -12.1283u    849.9709m  
    5.61000n    -11.4566u    849.9724m  
    5.62000n    -10.7849u    849.9739m  
    5.63000n    -10.1131u    849.9754m  
    5.64000n     -9.4414u    849.9769m  
    5.65000n     -8.7697u    849.9784m  
    5.66000n     -8.0979u    849.9799m  
    5.67000n     -7.4262u    849.9814m  
    5.68000n     -6.7545u    849.9829m  
    5.69000n     -6.0827u    849.9844m  
    5.70000n     -5.4110u    849.9859m  
    5.71000n     -4.7393u    849.9874m  
    5.72000n     -4.0675u    849.9889m  
    5.73000n     -3.3958u    849.9904m  
    5.74000n     -2.7241u    849.9920m  
    5.75000n     -2.0523u    849.9935m  
    5.76000n     -1.3806u    849.9950m  
    5.77000n   -708.8826n    849.9965m  
    5.78000n      0.         849.9980m  
    5.79000n    634.5798n    849.9995m  
    5.80000n      1.3063u    850.0010m  
    5.81000n      1.9780u    850.0025m  
    5.82000n      2.6498u    850.0040m  
    5.83000n      3.3215u    850.0055m  
    5.84000n      3.9932u    850.0070m  
    5.85000n      4.6650u    850.0085m  
    5.86000n      5.3367u    850.0100m  
    5.87000n      6.0084u    850.0115m  
    5.88000n      6.6802u    850.0131m  
    5.89000n      7.3519u    850.0146m  
    5.90000n      8.0236u    850.0161m  
    5.91000n      8.6954u    850.0176m  
    5.92000n      9.3671u    850.0191m  
    5.93000n     10.0388u    850.0206m  
    5.94000n     10.7105u    850.0221m  
    5.95000n     11.3823u    850.0236m  
    5.96000n     12.0540u    850.0251m  
    5.97000n     12.7257u    850.0266m  
    5.98000n     13.3975u    850.0281m  
    5.99000n     14.0692u    850.0296m  
    6.00000n     14.7409u    850.0311m  
    6.01000n     -4.3434m    849.9303m  
    6.02000n      5.3433m    850.4709m  
    6.03000n    226.5587m    861.7772m  
    6.04000n    745.1278m    265.2939m  
    6.05000n    843.3872m      1.9480m  
    6.06000n    849.9958m     -2.5419u  
    6.07000n    849.9993m    726.2730n  
    6.08000n    849.9979m      0.       
    6.09000n    849.9975m    645.8838n  
    6.10000n    849.9994m    553.0000n  
    6.11000n    849.9994m    573.6666n  
    6.12000n    849.9994m    575.6700n  
    6.13000n    849.9994m    575.7483n  
    6.14000n    849.9994m    575.7574n  
    6.15000n    849.9994m    575.7584n  
    6.16000n    849.9994m    575.7586n  
    6.17000n    849.9994m    575.7586n  
    6.18000n    849.9994m    575.7586n  
    6.19000n    849.9994m    575.7586n  
    6.20000n    849.9994m    575.7586n  
    6.21000n    849.9994m    575.7586n  
    6.22000n    849.9994m    575.7586n  
    6.23000n    849.9994m    575.7586n  
    6.24000n    849.9994m    575.7586n  
    6.25000n    849.9994m    575.7586n  
    6.26000n    849.9994m    575.7586n  
    6.27000n    849.9994m    575.7586n  
    6.28000n    849.9994m    575.7586n  
    6.29000n    849.9994m    575.7586n  
    6.30000n    849.9994m    575.7586n  
    6.31000n    849.9994m    575.7586n  
    6.32000n    849.9994m    575.7586n  
    6.33000n    849.9994m    575.7586n  
    6.34000n    849.9994m    575.7586n  
    6.35000n    849.9994m    575.7586n  
    6.36000n    849.9994m    575.7586n  
    6.37000n    849.9994m    575.7586n  
    6.38000n    849.9994m    575.7586n  
    6.39000n    849.9994m    575.7586n  
    6.40000n    849.9994m    575.7586n  
    6.41000n    849.9994m    575.7586n  
    6.42000n    849.9994m    575.7586n  
    6.43000n    849.9994m    575.7586n  
    6.44000n    849.9994m    575.7586n  
    6.45000n    849.9994m    575.7586n  
    6.46000n    849.9994m    575.7586n  
    6.47000n    849.9994m    575.7586n  
    6.48000n    849.9994m    575.7586n  
    6.49000n    849.9994m    575.7586n  
    6.50000n    849.9994m    575.7586n  
    6.51000n    849.9994m    575.7586n  
    6.52000n    849.9994m    575.7586n  
    6.53000n    849.9994m    575.7586n  
    6.54000n    849.9994m    575.7586n  
    6.55000n    849.9994m    575.7586n  
    6.56000n    849.9994m    575.7586n  
    6.57000n    849.9994m    575.7586n  
    6.58000n    849.9994m    575.7586n  
    6.59000n    849.9994m    575.7586n  
    6.60000n    849.9994m    575.7586n  
    6.61000n    849.9994m    575.7586n  
    6.62000n    849.9994m    575.7586n  
    6.63000n    849.9994m    575.7586n  
    6.64000n    849.9994m    575.7586n  
    6.65000n    849.9994m    575.7586n  
    6.66000n    849.9994m    575.7586n  
    6.67000n    849.9994m    575.7586n  
    6.68000n    849.9994m    575.7586n  
    6.69000n    849.9994m    575.7586n  
    6.70000n    849.9994m    575.7586n  
    6.71000n    849.9994m    575.7586n  
    6.72000n    849.9994m    575.7586n  
    6.73000n    849.9994m    575.7586n  
    6.74000n    849.9994m    575.7586n  
    6.75000n    849.9994m    575.7586n  
    6.76000n    849.9994m    575.7586n  
    6.77000n    849.9994m    575.7586n  
    6.78000n    849.9994m    575.7586n  
    6.79000n    849.9994m    575.7586n  
    6.80000n    849.9994m    575.7586n  
    6.81000n    849.9994m    575.7586n  
    6.82000n    849.9994m    575.7586n  
    6.83000n    849.9994m    575.7586n  
    6.84000n    849.9994m    575.7586n  
    6.85000n    849.9994m    575.7586n  
    6.86000n    849.9994m    575.7586n  
    6.87000n    849.9994m    575.7586n  
    6.88000n    849.9994m    575.7586n  
    6.89000n    849.9994m    575.7586n  
    6.90000n    849.9994m    575.7586n  
    6.91000n    849.9994m    575.7586n  
    6.92000n    849.9994m    575.7586n  
    6.93000n    849.9994m    575.7586n  
    6.94000n    849.9994m    575.7586n  
    6.95000n    849.9994m    575.7586n  
    6.96000n    849.9994m    575.7586n  
    6.97000n    849.9994m    575.7586n  
    6.98000n    849.9994m    575.7586n  
    6.99000n    849.9994m    575.7586n  
    7.00000n    849.9994m    575.7586n  
    7.01000n    849.9994m    575.7586n  
    7.02000n    849.9994m    575.7586n  
    7.03000n    849.9994m    575.7586n  
    7.04000n    849.9994m    575.7586n  
    7.05000n    849.9994m    575.7586n  
    7.06000n    855.9105m     38.9482u  
    7.07000n    839.0655m   -681.6130u  
    7.08000n    610.8789m     -8.6945m  
    7.09000n     56.9119m    652.4372m  
    7.10000n      5.0356m    849.2153m  
    7.11000n      4.1540u    850.0066m  
    7.12000n   -905.6198n    849.9973m  
    7.13000n      9.4514u    850.0117m  
    7.14000n      4.3960u    850.0046m  
    7.15000n   -659.4388n    849.9976m  
    7.16000n     -5.7149u    849.9905m  
    7.17000n     -8.5684u    849.9865m  
    7.18000n     -6.7833u    849.9890m  
    7.19000n     -4.9982u    849.9915m  
    7.20000n     -3.2132u    849.9940m  
    7.21000n     -1.4281u    849.9965m  
    7.22000n      0.         849.9990m  
    7.23000n      2.1420u    850.0015m  
    7.24000n      3.9270u    850.0041m  
    7.25000n      5.7121u    850.0066m  
    7.26000n      7.4971u    850.0091m  
    7.27000n      9.2822u    850.0116m  
    7.28000n      9.6813u    850.0121m  
    7.29000n      8.8764u    850.0110m  
    7.30000n      8.0716u    850.0099m  
    7.31000n      7.2667u    850.0087m  
    7.32000n      6.4618u    850.0076m  
    7.33000n      5.6570u    850.0065m  
    7.34000n      4.8521u    850.0053m  
    7.35000n      4.0472u    850.0042m  
    7.36000n      3.2424u    850.0031m  
    7.37000n      2.4375u    850.0019m  
    7.38000n      1.6326u    850.0008m  
    7.39000n    827.7556n    849.9997m  
    7.40000n      0.         849.9986m  
    7.41000n   -781.9766n    849.9974m  
    7.42000n     -1.5868u    849.9963m  
    7.43000n     -2.3917u    849.9952m  
    7.44000n     -3.1966u    849.9940m  
    7.45000n     -4.0014u    849.9929m  
    7.46000n     -4.8063u    849.9918m  
    7.47000n     -5.6112u    849.9906m  
    7.48000n     -6.4160u    849.9895m  
    7.49000n     -7.2209u    849.9884m  
    7.50000n     -8.0258u    849.9872m  
    7.51000n     -8.8306u    849.9861m  
    7.52000n     -8.4343u    849.9867m  
    7.53000n     -7.9628u    849.9873m  
    7.54000n     -7.4912u    849.9880m  
    7.55000n     -7.0197u    849.9887m  
    7.56000n     -6.5481u    849.9893m  
    7.57000n     -6.0765u    849.9900m  
    7.58000n     -5.6050u    849.9906m  
    7.59000n     -5.1334u    849.9913m  
    7.60000n     -4.6619u    849.9920m  
    7.61000n     -4.1903u    849.9926m  
    7.62000n     -3.7188u    849.9933m  
    7.63000n     -3.2472u    849.9940m  
    7.64000n     -2.7757u    849.9946m  
    7.65000n     -2.3041u    849.9953m  
    7.66000n     -1.8326u    849.9960m  
    7.67000n     -1.3610u    849.9966m  
    7.68000n   -889.4806n    849.9973m  
    7.69000n      0.         849.9979m  
    7.70000n      0.         849.9986m  
    7.71000n    525.1746n    849.9993m  
    7.72000n    996.7263n    849.9999m  
    7.73000n      1.4683u    850.0006m  
    7.74000n      1.9398u    850.0013m  
    7.75000n      2.4114u    850.0019m  
    7.76000n      2.8829u    850.0026m  
    7.77000n      3.3545u    850.0032m  
    7.78000n      3.8260u    850.0039m  
    7.79000n      4.2976u    850.0046m  
    7.80000n      4.7691u    850.0052m  
    7.81000n      5.2407u    850.0059m  
    7.82000n      5.7122u    850.0066m  
    7.83000n      6.1838u    850.0072m  
    7.84000n      6.6553u    850.0079m  
    7.85000n      7.1269u    850.0086m  
    7.86000n      7.5985u    850.0092m  
    7.87000n      8.0700u    850.0099m  
    7.88000n      8.5416u    850.0105m  
    7.89000n      9.0131u    850.0112m  
    7.90000n      9.4847u    850.0119m  
    7.91000n      9.9562u    850.0125m  
    7.92000n      8.0266u    850.0098m  
    7.93000n      5.9465u    850.0069m  
    7.94000n      3.8665u    850.0039m  
    7.95000n      1.7865u    850.0010m  
    7.96000n      0.         849.9981m  
    7.97000n     -2.3736u    849.9952m  
    7.98000n     -4.4536u    849.9922m  
    7.99000n     -6.5336u    849.9893m  
    8.00000n     -8.6136u    849.9864m  
y
x

        time    voltage      voltage    
                 outin_10     outin_20  
    0.          849.9994m    575.7586n  
   10.00000p    850.0185m     11.8743u  
   20.00000p    851.0852m     31.2110u  
   30.00000p    844.2688m   -634.0679u  
   40.00000p    281.8318m     74.2220m  
   50.00000p      1.1030m    844.9235m  
   60.00000p     -9.7589u    849.9739m  
   70.00000p      4.9517u    850.0136m  
   80.00000p    -13.5984u    849.9457m  
   90.00000p      0.         849.9972m  
  100.00000p     13.3361u    850.0487m  
  110.00000p     12.2486u    850.0443m  
  120.00000p      5.6719u    850.0188m  
  130.00000p   -904.6895n    849.9932m  
  140.00000p     -7.4813u    849.9677m  
  150.00000p    -14.0580u    849.9422m  
  160.00000p    -13.0457u    849.9462m  
  170.00000p     -9.6992u    849.9592m  
  180.00000p     -6.3528u    849.9723m  
  190.00000p     -3.0064u    849.9854m  
  200.00000p      0.         849.9985m  
  210.00000p      3.6865u    850.0115m  
  220.00000p      7.0329u    850.0246m  
  230.00000p     10.3793u    850.0377m  
  240.00000p     13.7258u    850.0508m  
  250.00000p     16.4703u    850.0615m  
  260.00000p     14.4796u    850.0537m  
  270.00000p     12.4888u    850.0459m  
  280.00000p     10.4981u    850.0381m  
  290.00000p      8.5074u    850.0303m  
  300.00000p      6.5167u    850.0225m  
  310.00000p      4.5260u    850.0147m  
  320.00000p      2.5352u    850.0069m  
  330.00000p    544.5269n    849.9991m  
  340.00000p     -1.4462u    849.9913m  
  350.00000p     -3.4369u    849.9835m  
  360.00000p     -5.4276u    849.9757m  
  370.00000p     -7.4183u    849.9679m  
  380.00000p     -9.4091u    849.9600m  
  390.00000p    -11.3998u    849.9522m  
  400.00000p    -13.3905u    849.9444m  
  410.00000p    -15.3812u    849.9366m  
  420.00000p    -14.2577u    849.9410m  
  430.00000p    -13.0504u    849.9458m  
  440.00000p    -11.8431u    849.9505m  
  450.00000p    -10.6358u    849.9553m  
  460.00000p     -9.4284u    849.9600m  
  470.00000p     -8.2211u    849.9648m  
  480.00000p     -7.0138u    849.9695m  
  490.00000p     -5.8065u    849.9742m  
  500.00000p     -4.5991u    849.9790m  
  510.00000p     -3.3918u    849.9837m  
  520.00000p     -2.1845u    849.9885m  
  530.00000p   -977.1823n    849.9932m  
  540.00000p      0.         849.9979m  
  550.00000p      1.4375u    850.0027m  
  560.00000p      2.6448u    850.0074m  
  570.00000p      3.8521u    850.0122m  
  580.00000p      5.0594u    850.0169m  
  590.00000p      6.2667u    850.0217m  
  600.00000p      7.4741u    850.0264m  
  610.00000p      8.6814u    850.0311m  
  620.00000p      9.8887u    850.0359m  
  630.00000p     11.0960u    850.0406m  
  640.00000p     12.3034u    850.0454m  
  650.00000p     13.5107u    850.0501m  
  660.00000p     14.7180u    850.0548m  
  670.00000p     15.9253u    850.0596m  
  680.00000p     16.2124u    850.0607m  
  690.00000p     15.3589u    850.0574m  
  700.00000p     14.5053u    850.0540m  
  710.00000p     13.6518u    850.0506m  
  720.00000p     12.7982u    850.0473m  
  730.00000p     11.9447u    850.0439m  
  740.00000p     11.0911u    850.0406m  
  750.00000p     10.2376u    850.0372m  
  760.00000p      9.3840u    850.0339m  
  770.00000p      8.5305u    850.0305m  
  780.00000p      7.6769u    850.0272m  
  790.00000p      6.8234u    850.0238m  
  800.00000p      5.9698u    850.0204m  
  810.00000p      5.1163u    850.0171m  
  820.00000p      4.2628u    850.0137m  
  830.00000p      3.4092u    850.0104m  
  840.00000p      2.5557u    850.0070m  
  850.00000p      1.7021u    850.0037m  
  860.00000p    848.5648n    850.0003m  
  870.00000p      0.         849.9969m  
  880.00000p   -858.5296n    849.9936m  
  890.00000p     -1.7121u    849.9902m  
  900.00000p     -2.5656u    849.9869m  
  910.00000p     -3.4192u    849.9835m  
  920.00000p     -4.2727u    849.9802m  
  930.00000p     -5.1263u    849.9768m  
  940.00000p     -5.9798u    849.9735m  
  950.00000p     -6.8334u    849.9701m  
  960.00000p     -7.6869u    849.9667m  
  970.00000p     -8.5405u    849.9634m  
  980.00000p     -9.3940u    849.9600m  
  990.00000p    -10.2475u    849.9567m  
    1.00000n    -11.1011u    849.9533m  
    1.01000n    -11.9546u    849.9500m  
    1.02000n    -12.8082u    849.9466m  
    1.03000n    -13.6617u    849.9432m  
    1.04000n    -14.5153u    849.9399m  
    1.05000n    -15.3688u    849.9365m  
    1.06000n   -856.0424u    849.9505m  
    1.07000n     -1.6967m    849.9645m  
    1.08000n     68.6780m    855.0238m  
    1.09000n    750.3210m    552.9233m  
    1.10000n    849.3839m   -165.3648u  
    1.11000n    850.0237m     -4.9290u  
    1.12000n    850.0006m      1.9111u  
    1.13000n    850.0184m      3.6286u  
    1.14000n    850.0006m      0.       
    1.15000n    849.9828m     -2.7708u  
    1.16000n    849.9775m     -3.6631u  
    1.17000n    849.9844m     -2.2842u  
    1.18000n    849.9912m   -905.2849n  
    1.19000n    849.9981m      0.       
    1.20000n    850.0050m      1.8526u  
    1.21000n    850.0119m      3.2315u  
    1.22000n    850.0188m      4.6104u  
    1.23000n    850.0229m      5.4358u  
    1.24000n    850.0203m      4.8790u  
    1.25000n    850.0176m      4.3223u  
    1.26000n    850.0149m      3.7655u  
    1.27000n    850.0122m      3.2087u  
    1.28000n    850.0096m      2.6520u  
    1.29000n    850.0069m      2.0952u  
    1.30000n    850.0042m      1.5385u  
    1.31000n    850.0016m    981.7019n  
    1.32000n    849.9989m      0.       
    1.33000n    849.9962m      0.       
    1.34000n    849.9935m   -688.5821n  
    1.35000n    849.9909m     -1.2453u  
    1.36000n    849.9882m     -1.8021u  
    1.37000n    849.9855m     -2.3589u  
    1.38000n    849.9829m     -2.9156u  
    1.39000n    849.9802m     -3.4724u  
    1.40000n    849.9775m     -4.0291u  
    1.41000n    849.9757m     -4.4156u  
    1.42000n    849.9770m     -4.1378u  
    1.43000n    849.9783m     -3.8601u  
    1.44000n    849.9796m     -3.5823u  
    1.45000n    849.9809m     -3.3046u  
    1.46000n    849.9822m     -3.0268u  
    1.47000n    849.9835m     -2.7491u  
    1.48000n    849.9848m     -2.4714u  
    1.49000n    849.9861m     -2.1936u  
    1.50000n    849.9875m     -1.9159u  
    1.51000n    849.9888m     -1.6381u  
    1.52000n    849.9901m     -1.3604u  
    1.53000n    849.9914m     -1.0826u  
    1.54000n    849.9927m   -804.8870n  
    1.55000n    849.9940m   -527.1416n  
    1.56000n    849.9953m      0.       
    1.57000n    849.9966m      0.       
    1.58000n    849.9980m      0.       
    1.59000n    849.9993m    583.8398n  
    1.60000n    850.0006m    861.5852n  
    1.61000n    850.0019m      1.1393u  
    1.62000n    850.0032m      1.4171u  
    1.63000n    850.0045m      1.6948u  
    1.64000n    850.0058m      1.9726u  
    1.65000n    850.0071m      2.2503u  
    1.66000n    850.0084m      2.5281u  
    1.67000n    850.0098m      2.8058u  
    1.68000n    850.0111m      3.0835u  
    1.69000n    850.0124m      3.3613u  
    1.70000n    850.0137m      3.6390u  
    1.71000n    850.0150m      3.9168u  
    1.72000n    850.0163m      4.1945u  
    1.73000n    850.0176m      4.4723u  
    1.74000n    850.0189m      4.7500u  
    1.75000n    850.0202m      5.0278u  
    1.76000n    850.0216m      5.3055u  
    1.77000n    850.0229m      5.5833u  
    1.78000n    850.0215m      5.2796u  
    1.79000n    850.0194m      4.8346u  
    1.80000n    850.0173m      4.3897u  
    1.81000n    850.0152m      3.9447u  
    1.82000n    850.0132m      3.4997u  
    1.83000n    850.0111m      3.0547u  
    1.84000n    850.0090m      2.6097u  
    1.85000n    850.0070m      2.1648u  
    1.86000n    850.0049m      1.7198u  
    1.87000n    850.0028m      1.2748u  
    1.88000n    850.0007m    829.8287n  
    1.89000n    849.9987m      0.       
    1.90000n    849.9966m      0.       
    1.91000n    849.9945m   -505.1068n  
    1.92000n    849.9924m   -950.0853n  
    1.93000n    849.9904m     -1.3951u  
    1.94000n    849.9883m     -1.8400u  
    1.95000n    849.9862m     -2.2850u  
    1.96000n    849.9842m     -2.7300u  
    1.97000n    849.9821m     -3.1750u  
    1.98000n    849.9800m     -3.6200u  
    1.99000n    849.9779m     -4.0649u  
    2.00000n    849.9759m     -4.5099u  
    2.01000n    849.9391m      9.3195u  
    2.02000n    810.7065m     -1.0016m  
    2.03000n    709.1328m     -3.6708m  
    2.04000n    120.4848m    448.4987m  
    2.05000n    527.0750u    850.3183m  
    2.06000n    -21.7367u    850.0030m  
    2.07000n     -9.4303u    849.9912m  
    2.08000n     -9.6643u    849.9947m  
    2.09000n    -10.7165u    849.9878m  
    2.10000n      4.1546u    850.0062m  
    2.11000n    610.5987n    849.9994m  
    2.12000n    524.3135n    849.9992m  
    2.13000n    575.7570n    849.9994m  
    2.14000n    627.2005n    849.9995m  
    2.15000n    602.4530n    849.9994m  
    2.16000n    575.9662n    849.9994m  
    2.17000n    549.4793n    849.9993m  
    2.18000n    523.3839n    849.9992m  
    2.19000n    535.5790n    849.9993m  
    2.20000n    547.7742n    849.9993m  
    2.21000n    559.9693n    849.9993m  
    2.22000n    572.1644n    849.9993m  
    2.23000n    584.3595n    849.9994m  
    2.24000n    596.5546n    849.9994m  
    2.25000n    608.7497n    849.9994m  
    2.26000n    620.9448n    849.9995m  
    2.27000n    624.9206n    849.9995m  
    2.28000n    618.3674n    849.9995m  
    2.29000n    611.8142n    849.9994m  
    2.30000n    605.2610n    849.9994m  
    2.31000n    598.7078n    849.9994m  
    2.32000n    592.1546n    849.9994m  
    2.33000n    585.6014n    849.9994m  
    2.34000n    579.0482n    849.9994m  
    2.35000n    572.4950n    849.9993m  
    2.36000n    565.9418n    849.9993m  
    2.37000n    559.3886n    849.9993m  
    2.38000n    552.8354n    849.9993m  
    2.39000n    546.2822n    849.9993m  
    2.40000n    539.7290n    849.9993m  
    2.41000n    533.1757n    849.9992m  
    2.42000n    526.6225n    849.9992m  
    2.43000n    525.5739n    849.9992m  
    2.44000n    529.4380n    849.9992m  
    2.45000n    533.3020n    849.9992m  
    2.46000n    537.1661n    849.9993m  
[...]
    3.68000n    849.9994m    575.7405n  
    3.69000n    849.9994m    575.7405n  
    3.70000n    849.9994m    575.7405n  
    3.71000n    849.9994m    575.7405n  
    3.72000n    849.9994m    575.7405n  
    3.73000n    849.9994m    575.7405n  
    3.74000n    849.9994m    575.7405n  
    3.75000n    849.9994m    575.7405n  
    3.76000n    849.9994m    575.7405n  
    3.77000n    849.9994m    575.7405n  
    3.78000n    849.9994m    575.7405n  
    3.79000n    849.9994m    575.7405n  
    3.80000n    849.9994m    575.7405n  
    3.81000n    849.9994m    575.7405n  
    3.82000n    849.9994m    575.7405n  
    3.83000n    849.9994m    575.7405n  
    3.84000n    849.9994m    575.7405n  
    3.85000n    849.9994m    575.7405n  
    3.86000n    849.9994m    575.7405n  
    3.87000n    849.9994m    575.7405n  
    3.88000n    849.9994m    575.7405n  
    3.89000n    849.9994m    575.7405n  
    3.90000n    849.9994m    575.7405n  
    3.91000n    849.9994m    575.7405n  
    3.92000n    849.9994m    575.7405n  
    3.93000n    849.9994m    575.7405n  
    3.94000n    849.9994m    575.7405n  
    3.95000n    849.9994m    575.7405n  
    3.96000n    849.9994m    575.7405n  
    3.97000n    849.9994m    575.7405n  
    3.98000n    849.9994m    575.7405n  
    3.99000n    849.9994m    575.7405n  
    4.00000n    849.9994m    575.7405n  
    4.01000n    849.9994m    575.7405n  
    4.02000n    849.9994m    575.7405n  
    4.03000n    849.9994m    575.7405n  
    4.04000n    849.9994m    575.7405n  
    4.05000n    849.9994m    575.7405n  
    4.06000n    850.0012m     -6.1214u  
    4.07000n    849.8916m      8.6723u  
    4.08000n    853.7029m    271.3529u  
    4.09000n    546.5092m    -35.3908m  
    4.10000n     -2.0069     901.5809m  
    4.11000n   -261.8967m    819.5453m  
    4.12000n    880.2803m    -12.5959m  
    4.13000n      1.2388m    849.0574m  
    4.14000n    145.4887u    850.2296m  
    4.15000n   -106.8992u    849.8263m  
    4.16000n    174.8575u    850.2814m  
    4.17000n     45.9763u    850.0726m  
    4.18000n   -117.0102u    849.8086m  
    4.19000n   -144.7042u    849.7639m  
    4.20000n    -55.2344u    849.9089m  
    4.21000n     34.2354u    850.0540m  
    4.22000n    123.7051u    850.1991m  
    4.23000n    180.6056u    850.2913m  
    4.24000n    129.8789u    850.2090m  
    4.25000n     79.1522u    850.1267m  
    4.26000n     28.4254u    850.0444m  
    4.27000n    -22.3013u    849.9621m  
    4.28000n    -73.0280u    849.8798m  
    4.29000n   -123.7547u    849.7975m  
    4.30000n   -174.4815u    849.7152m  
    4.31000n   -168.7302u    849.7246m  
    4.32000n   -137.0884u    849.7759m  
    4.33000n   -105.4465u    849.8273m  
    4.34000n    -73.8047u    849.8786m  
    4.35000n    -42.1629u    849.9300m  
    4.36000n    -10.5210u    849.9813m  
    4.37000n     21.1208u    850.0327m  
    4.38000n     52.7626u    850.0840m  
    4.39000n     84.4045u    850.1354m  
    4.40000n    116.0463u    850.1867m  
    4.41000n    147.6881u    850.2381m  
    4.42000n    179.3300u    850.2894m  
    4.43000n    178.1159u    850.2875m  
    4.44000n    157.4584u    850.2539m  
    4.45000n    136.8009u    850.2204m  
    4.46000n    116.1434u    850.1869m  
    4.47000n     95.4859u    850.1533m  
    4.48000n     74.8284u    850.1198m  
    4.49000n     54.1709u    850.0863m  
    4.50000n     33.5134u    850.0528m  
    4.51000n     12.8559u    850.0192m  
    4.52000n     -7.8016u    849.9857m  
    4.53000n    -28.4591u    849.9522m  
    4.54000n    -49.1166u    849.9186m  
    4.55000n    -69.7740u    849.8851m  
    4.56000n    -90.4315u    849.8516m  
    4.57000n   -111.0890u    849.8180m  
    4.58000n   -131.7465u    849.7845m  
    4.59000n   -152.4040u    849.7510m  
    4.60000n   -173.0615u    849.7174m  
    4.61000n   -186.7577u    849.6952m  
    4.62000n   -172.4435u    849.7185m  
    4.63000n   -158.1293u    849.7417m  
    4.64000n   -143.8150u    849.7649m  
    4.65000n   -129.5008u    849.7882m  
    4.66000n   -115.1865u    849.8114m  
    4.67000n   -100.8723u    849.8346m  
    4.68000n    -86.5581u    849.8579m  
    4.69000n    -72.2438u    849.8811m  
    4.70000n    -57.9296u    849.9044m  
    4.71000n    -43.6154u    849.9276m  
    4.72000n    -29.3011u    849.9508m  
    4.73000n    -14.9869u    849.9741m  
    4.74000n   -672.6340n    849.9973m  
    4.75000n     13.6416u    850.0205m  
    4.76000n     27.9558u    850.0438m  
    4.77000n     42.2701u    850.0670m  
    4.78000n     56.5843u    850.0902m  
    4.79000n     70.8986u    850.1135m  
    4.80000n     85.2128u    850.1367m  
    4.81000n     99.5270u    850.1600m  
    4.82000n    113.8413u    850.1832m  
    4.83000n    128.1555u    850.2064m  
    4.84000n    142.4698u    850.2297m  
    4.85000n    156.7840u    850.2529m  
    4.86000n    171.0982u    850.2761m  
    4.87000n    185.4125u    850.2994m  
    4.88000n    176.7486u    850.2853m  
    4.89000n    155.2311u    850.2504m  
    4.90000n    133.7136u    850.2154m  
    4.91000n    112.1961u    850.1805m  
    4.92000n     90.6786u    850.1456m  
    4.93000n     69.1610u    850.1106m  
    4.94000n     47.6435u    850.0757m  
    4.95000n     26.1260u    850.0408m  
    4.96000n      4.6085u    850.0058m  
    4.97000n    -16.9090u    849.9709m  
    4.98000n    -38.4265u    849.9360m  
    4.99000n    -59.9440u    849.9010m  
    5.00000n    -81.4615u    849.8661m  
    5.01000n   -102.9790u    849.8312m  
    5.02000n   -124.4965u    849.7962m  
    5.03000n   -146.0140u    849.7613m  
    5.04000n   -167.5315u    849.7264m  
    5.05000n   -189.0490u    849.6914m  
    5.06000n      1.2867u    850.0006m  
    5.07000n      3.9545u    850.0047m  
    5.08000n     -1.0036u    849.9969m  
    5.09000n    830.7589n    849.9997m  
    5.10000n      0.         849.9992m  
    5.11000n    575.7661n    849.9994m  
    5.12000n    575.7587n    849.9994m  
    5.13000n    575.7585n    849.9994m  
    5.14000n    575.7584n    849.9994m  
    5.15000n    575.7586n    849.9994m  
    5.16000n    575.7588n    849.9994m  
    5.17000n    575.7588n    849.9994m  
    5.18000n    575.7587n    849.9994m  
    5.19000n    575.7586n    849.9994m  
    5.20000n    575.7585n    849.9994m  
    5.21000n    575.7584n    849.9994m  
    5.22000n    575.7583n    849.9994m  
    5.23000n    575.7583n    849.9994m  
    5.24000n    575.7584n    849.9994m  
    5.25000n    575.7584n    849.9994m  
    5.26000n    575.7585n    849.9994m  
    5.27000n    575.7585n    849.9994m  
    5.28000n    575.7586n    849.9994m  
    5.29000n    575.7586n    849.9994m  
    5.30000n    575.7587n    849.9994m  
    5.31000n    575.7587n    849.9994m  
    5.32000n    575.7587n    849.9994m  
    5.33000n    575.7588n    849.9994m  
    5.34000n    575.7588n    849.9994m  
    5.35000n    575.7589n    849.9994m  
    5.36000n    575.7589n    849.9994m  
    5.37000n    575.7588n    849.9994m  
    5.38000n    575.7588n    849.9994m  
    5.39000n    575.7588n    849.9994m  
    5.40000n    575.7588n    849.9994m  
    5.41000n    575.7587n    849.9994m  
    5.42000n    575.7587n    849.9994m  
    5.43000n    575.7587n    849.9994m  
    5.44000n    575.7587n    849.9994m  
    5.45000n    575.7586n    849.9994m  
    5.46000n    575.7586n    849.9994m  
    5.47000n    575.7586n    849.9994m  
    5.48000n    575.7585n    849.9994m  
    5.49000n    575.7585n    849.9994m  
    5.50000n    575.7585n    849.9994m  
    5.51000n    575.7585n    849.9994m  
    5.52000n    575.7584n    849.9994m  
    5.53000n    575.7584n    849.9994m  
    5.54000n    575.7584n    849.9994m  
    5.55000n    575.7584n    849.9994m  
    5.56000n    575.7583n    849.9994m  
    5.57000n    575.7583n    849.9994m  
    5.58000n    575.7583n    849.9994m  
    5.59000n    575.7583n    849.9994m  
    5.60000n    575.7583n    849.9994m  
    5.61000n    575.7583n    849.9994m  
    5.62000n    575.7583n    849.9994m  
    5.63000n    575.7584n    849.9994m  
    5.64000n    575.7584n    849.9994m  
    5.65000n    575.7584n    849.9994m  
    5.66000n    575.7584n    849.9994m  
    5.67000n    575.7584n    849.9994m  
    5.68000n    575.7584n    849.9994m  
    5.69000n    575.7584n    849.9994m  
    5.70000n    575.7585n    849.9994m  
    5.71000n    575.7585n    849.9994m  
    5.72000n    575.7585n    849.9994m  
    5.73000n    575.7585n    849.9994m  
    5.74000n    575.7585n    849.9994m  
    5.75000n    575.7585n    849.9994m  
    5.76000n    575.7585n    849.9994m  
    5.77000n    575.7586n    849.9994m  
    5.78000n    575.7586n    849.9994m  
    5.79000n    575.7586n    849.9994m  
    5.80000n    575.7586n    849.9994m  
    5.81000n    575.7586n    849.9994m  
    5.82000n    575.7586n    849.9994m  
    5.83000n    575.7586n    849.9994m  
    5.84000n    575.7587n    849.9994m  
    5.85000n    575.7587n    849.9994m  
    5.86000n    575.7587n    849.9994m  
    5.87000n    575.7587n    849.9994m  
    5.88000n    575.7587n    849.9994m  
    5.89000n    575.7587n    849.9994m  
    5.90000n    575.7587n    849.9994m  
    5.91000n    575.7588n    849.9994m  
    5.92000n    575.7588n    849.9994m  
    5.93000n    575.7588n    849.9994m  
    5.94000n    575.7588n    849.9994m  
    5.95000n    575.7588n    849.9994m  
    5.96000n    575.7588n    849.9994m  
    5.97000n    575.7589n    849.9994m  
    5.98000n    575.7589n    849.9994m  
    5.99000n    575.7589n    849.9994m  
    6.00000n    575.7589n    849.9994m  
    6.01000n    575.7586n    849.9994m  
    6.02000n    575.7586n    849.9994m  
    6.03000n    575.7586n    849.9994m  
    6.04000n    575.7586n    849.9994m  
    6.05000n    575.7586n    849.9994m  
    6.06000n    575.7586n    849.9994m  
    6.07000n    575.7586n    849.9994m  
    6.08000n    575.7586n    849.9994m  
    6.09000n    575.7586n    849.9994m  
    6.10000n    575.7586n    849.9994m  
    6.11000n    575.7586n    849.9994m  
    6.12000n    575.7586n    849.9994m  
    6.13000n    575.7586n    849.9994m  
    6.14000n    575.7586n    849.9994m  
    6.15000n    575.7586n    849.9994m  
    6.16000n    575.7586n    849.9994m  
    6.17000n    575.7586n    849.9994m  
    6.18000n    575.7586n    849.9994m  
    6.19000n    575.7586n    849.9994m  
    6.20000n    575.7586n    849.9994m  
    6.21000n    575.7586n    849.9994m  
    6.22000n    575.7586n    849.9994m  
    6.23000n    575.7586n    849.9994m  
    6.24000n    575.7586n    849.9994m  
    6.25000n    575.7586n    849.9994m  
    6.26000n    575.7586n    849.9994m  
    6.27000n    575.7586n    849.9994m  
    6.28000n    575.7586n    849.9994m  
    6.29000n    575.7586n    849.9994m  
    6.30000n    575.7586n    849.9994m  
    6.31000n    575.7586n    849.9994m  
    6.32000n    575.7586n    849.9994m  
    6.33000n    575.7586n    849.9994m  
    6.34000n    575.7586n    849.9994m  
    6.35000n    575.7586n    849.9994m  
    6.36000n    575.7586n    849.9994m  
    6.37000n    575.7586n    849.9994m  
    6.38000n    575.7586n    849.9994m  
    6.39000n    575.7586n    849.9994m  
    6.40000n    575.7586n    849.9994m  
    6.41000n    575.7586n    849.9994m  
    6.42000n    575.7586n    849.9994m  
    6.43000n    575.7586n    849.9994m  
    6.44000n    575.7586n    849.9994m  
    6.45000n    575.7586n    849.9994m  
    6.46000n    575.7586n    849.9994m  
    6.47000n    575.7586n    849.9994m  
    6.48000n    575.7586n    849.9994m  
    6.49000n    575.7586n    849.9994m  
    6.50000n    575.7586n    849.9994m  
    6.51000n    575.7586n    849.9994m  
    6.52000n    575.7586n    849.9994m  
    6.53000n    575.7586n    849.9994m  
    6.54000n    575.7586n    849.9994m  
    6.55000n    575.7586n    849.9994m  
    6.56000n    575.7586n    849.9994m  
    6.57000n    575.7586n    849.9994m  
    6.58000n    575.7586n    849.9994m  
    6.59000n    575.7586n    849.9994m  
    6.60000n    575.7586n    849.9994m  
    6.61000n    575.7586n    849.9994m  
    6.62000n    575.7586n    849.9994m  
    6.63000n    575.7586n    849.9994m  
    6.64000n    575.7586n    849.9994m  
    6.65000n    575.7586n    849.9994m  
    6.66000n    575.7586n    849.9994m  
    6.67000n    575.7586n    849.9994m  
    6.68000n    575.7586n    849.9994m  
    6.69000n    575.7586n    849.9994m  
    6.70000n    575.7586n    849.9994m  
    6.71000n    575.7586n    849.9994m  
    6.72000n    575.7586n    849.9994m  
    6.73000n    575.7586n    849.9994m  
    6.74000n    575.7586n    849.9994m  
    6.75000n    575.7586n    849.9994m  
    6.76000n    575.7586n    849.9994m  
    6.77000n    575.7586n    849.9994m  
    6.78000n    575.7586n    849.9994m  
    6.79000n    575.7586n    849.9994m  
    6.80000n    575.7586n    849.9994m  
    6.81000n    575.7586n    849.9994m  
    6.82000n    575.7586n    849.9994m  
    6.83000n    575.7586n    849.9994m  
    6.84000n    575.7586n    849.9994m  
    6.85000n    575.7586n    849.9994m  
    6.86000n    575.7586n    849.9994m  
    6.87000n    575.7586n    849.9994m  
    6.88000n    575.7586n    849.9994m  
    6.89000n    575.7586n    849.9994m  
    6.90000n    575.7586n    849.9994m  
    6.91000n    575.7586n    849.9994m  
    6.92000n    575.7586n    849.9994m  
    6.93000n    575.7586n    849.9994m  
    6.94000n    575.7586n    849.9994m  
    6.95000n    575.7586n    849.9994m  
    6.96000n    575.7586n    849.9994m  
    6.97000n    575.7586n    849.9994m  
    6.98000n    575.7586n    849.9994m  
    6.99000n    575.7586n    849.9994m  
    7.00000n    575.7586n    849.9994m  
    7.01000n    575.7586n    849.9994m  
    7.02000n    575.7586n    849.9994m  
    7.03000n    575.7586n    849.9994m  
    7.04000n    575.7586n    849.9994m  
    7.05000n    575.7586n    849.9994m  
    7.06000n    575.7586n    849.9994m  
    7.07000n    575.7586n    849.9994m  
    7.08000n    575.7586n    849.9994m  
    7.09000n    575.7586n    849.9994m  
    7.10000n    575.7586n    849.9994m  
    7.11000n    575.7586n    849.9994m  
    7.12000n    575.7586n    849.9994m  
    7.13000n    575.7586n    849.9994m  
    7.14000n    575.7586n    849.9994m  
    7.15000n    575.7586n    849.9994m  
    7.16000n    575.7586n    849.9994m  
    7.17000n    575.7586n    849.9994m  
    7.18000n    575.7586n    849.9994m  
    7.19000n    575.7586n    849.9994m  
    7.20000n    575.7586n    849.9994m  
    7.21000n    575.7586n    849.9994m  
    7.22000n    575.7586n    849.9994m  
    7.23000n    575.7586n    849.9994m  
    7.24000n    575.7586n    849.9994m  
    7.25000n    575.7586n    849.9994m  
    7.26000n    575.7586n    849.9994m  
    7.27000n    575.7586n    849.9994m  
    7.28000n    575.7586n    849.9994m  
    7.29000n    575.7586n    849.9994m  
    7.30000n    575.7586n    849.9994m  
    7.31000n    575.7586n    849.9994m  
    7.32000n    575.7586n    849.9994m  
    7.33000n    575.7586n    849.9994m  
    7.34000n    575.7586n    849.9994m  
    7.35000n    575.7586n    849.9994m  
    7.36000n    575.7586n    849.9994m  
    7.37000n    575.7586n    849.9994m  
    7.38000n    575.7586n    849.9994m  
    7.39000n    575.7586n    849.9994m  
    7.40000n    575.7586n    849.9994m  
    7.41000n    575.7586n    849.9994m  
    7.42000n    575.7586n    849.9994m  
    7.43000n    575.7586n    849.9994m  
    7.44000n    575.7586n    849.9994m  
    7.45000n    575.7586n    849.9994m  
    7.46000n    575.7586n    849.9994m  
    7.47000n    575.7586n    849.9994m  
    7.48000n    575.7586n    849.9994m  
    7.49000n    575.7586n    849.9994m  
    7.50000n    575.7586n    849.9994m  
    7.51000n    575.7586n    849.9994m  
    7.52000n    575.7586n    849.9994m  
    7.53000n    575.7586n    849.9994m  
    7.54000n    575.7586n    849.9994m  
    7.55000n    575.7586n    849.9994m  
    7.56000n    575.7586n    849.9994m  
    7.57000n    575.7586n    849.9994m  
    7.58000n    575.7586n    849.9994m  
    7.59000n    575.7586n    849.9994m  
    7.60000n    575.7586n    849.9994m  
    7.61000n    575.7586n    849.9994m  
    7.62000n    575.7586n    849.9994m  
    7.63000n    575.7586n    849.9994m  
    7.64000n    575.7586n    849.9994m  
    7.65000n    575.7586n    849.9994m  
    7.66000n    575.7586n    849.9994m  
    7.67000n    575.7586n    849.9994m  
    7.68000n    575.7586n    849.9994m  
    7.69000n    575.7586n    849.9994m  
    7.70000n    575.7586n    849.9994m  
    7.71000n    575.7586n    849.9994m  
    7.72000n    575.7586n    849.9994m  
    7.73000n    575.7586n    849.9994m  
    7.74000n    575.7586n    849.9994m  
    7.75000n    575.7586n    849.9994m  
    7.76000n    575.7586n    849.9994m  
    7.77000n    575.7586n    849.9994m  
    7.78000n    575.7586n    849.9994m  
    7.79000n    575.7586n    849.9994m  
    7.80000n    575.7586n    849.9994m  
    7.81000n    575.7586n    849.9994m  
    7.82000n    575.7586n    849.9994m  
    7.83000n    575.7586n    849.9994m  
    7.84000n    575.7586n    849.9994m  
    7.85000n    575.7586n    849.9994m  
    7.86000n    575.7586n    849.9994m  
    7.87000n    575.7586n    849.9994m  
    7.88000n    575.7586n    849.9994m  
    7.89000n    575.7586n    849.9994m  
    7.90000n    575.7586n    849.9994m  
    7.91000n    575.7586n    849.9994m  
    7.92000n    575.7586n    849.9994m  
    7.93000n    575.7586n    849.9994m  
    7.94000n    575.7586n    849.9994m  
    7.95000n    575.7586n    849.9994m  
    7.96000n    575.7586n    849.9994m  
    7.97000n    575.7586n    849.9994m  
    7.98000n    575.7586n    849.9994m  
    7.99000n    575.7586n    849.9994m  
    8.00000n    575.7586n    849.9994m  
y
 inv_avg_power00= 184.7396n  from=   0.          to=   8.0000n
 peakpower00= 157.0238u    at=   5.1007n
             from=   0.         to=   8.0000n
 power_avg=  33.0274u  from=   0.          to=   8.0000n
 avg_power= 2.489e+27  from=   0.          to=   8.0000n

          ***** job concluded
1****** HSPICE -- F-2011.09-SP2 64-BIT (Feb 27 2012) linux ******               
 ******  
 $this uut was automatically generated by:

  ******  job statistics summary tnom=  25.000 temp=  25.000 *****
  
  
 ******  Machine Information  ******
 CPU:
 model name	: Intel(R) Xeon(R) CPU E5-2650 v4 @ 2.20GHz
 cpu MHz	: 2667.242
  
 OS:
 Linux version 3.10.0-693.17.1.el7.x86_64 (mockbuild@x86-041.build.eng.bos.redha
 t.com) (gcc version 4.8.5 20150623 (Red Hat 4.8.5-16) (GCC) ) #1 SMP Sun Jan 14
  10:36:03 EST 2018


  ******  HSPICE Threads Information  ******

  Command Line Threads Count :     1
  Available CPU Count        :    24
  Actual Threads Count       :     1


  ******  Circuit Statistics  ******
  # nodes       =      83 # elements   =      34
  # resistors   =       0 # capacitors =       0 # inductors   =       0
  # mutual_inds =       0 # vccs       =       0 # vcvs        =       0
  # cccs        =       0 # ccvs       =       0 # volt_srcs   =       4
  # curr_srcs   =       0 # diodes     =       0 # bjts        =       0
  # jfets       =       0 # mosfets    =      30 # U elements  =       0
  # T elements  =       0 # W elements =       0 # B elements  =       0
  # S elements  =       0 # P elements =       0 # va device   =       0
  # vector_srcs =       0


  ******  Runtime Statistics (seconds)  ******

  analysis           time    # points   tot. iter  conv.iter
  op point           0.02           1          73
  transient          0.25         801        2358         345 rev=        24
  readin             0.01
  errchk             0.00
  setup              0.00
  output             0.01


           peak memory used        135.46 megabytes
           total cpu time            0.29 seconds
           total elapsed time        0.55 seconds
           job started at     18:49:39 09/11/2020
           job ended   at     18:49:40 09/11/2020


 lic: Release hspice token(s) 
