$DATA1 SOURCE='HSPICE' VERSION='F-2011.09-SP2 64-BIT'
.TITLE '$this uut was automatically generated by:'
 inv_avg_power00  peakpower00      inv_avg_power10  peakpower10       
 inv_avg_power01  peakpower01      inv_avg_power11  peakpower11       
 uut_grid_avg_power uut_grid_max_power source_power      
 trf_delay_001    tfr_delay_001    trf_delay_002    tfr_delay_002     
 trf_delay_101    tfr_delay_101    trf_delay_102    tfr_delay_102     
 trf_delay_011    tfr_delay_011    trf_delay_111    tfr_delay_111     
 temper           alter#            
  7.531e-05        3.167e-03        3.188e-07        1.941e-04        
  4.771e-08        7.160e-06        1.583e-08        6.032e-06        
  7.570e-05        3.167e-03        1.010e-04        2.169e-14        
  4.454e-12        4.519e-12        3.734e-12        1.750e-12        
 -2.981e-13        3.327e-12        1.818e-12        2.169e-14        
  3.884e-12        1.844e-12       -2.981e-13         25.0000         
 1                 
