$DATA1 SOURCE='HSPICE' VERSION='F-2011.09-SP2 64-BIT'
.TITLE '$this uut was automatically generated by:'
 power_avg        avg_power        inv_avg_power    peakpower         
 trf_delay_1      tfr_delay_1      trf_delay_2      tfr_delay_2       
 temper           alter#            
  2.439e-06       -1.187e-08        1.328e-07        1.914e-05        
  6.038e-12        6.432e-12        5.911e-12        6.388e-12        
   25.0000        1                 
