$DATA1 SOURCE='HSPICE' VERSION='F-2011.09-SP2 64-BIT'
.TITLE '$this uut was automatically generated by:'
 trf_delay_001    tfr_delay_001    trf_delay_002    tfr_delay_002     
 trf_delay_003    tfr_delay_003    trf_delay_004    tfr_delay_004     
 trf_delay_101    tfr_delay_101    trf_delay_102    tfr_delay_102     
 trf_delay_103    tfr_delay_103    trf_delay_104    tfr_delay_104     
 trf_delay_201    tfr_delay_201    trf_delay_202    tfr_delay_202     
 trf_delay_203    tfr_delay_203    trf_delay_204    tfr_delay_204     
 trf_delay_011    tfr_delay_011    trf_delay_012    tfr_delay_012     
 trf_delay_111    tfr_delay_111    trf_delay_112    tfr_delay_112     
 trf_delay_211    tfr_delay_211    trf_delay_212    tfr_delay_212     
 trf_delay_021    tfr_delay_021    trf_delay_121    tfr_delay_121     
 trf_delay_221    tfr_delay_221    inv_avg_power00  peakpower00       
 power_avg        avg_power        temper           alter#            
  5.260e-12        6.965e-12        5.475e-12        7.223e-12        
  6.390e-12        6.651e-12        4.897e-12        7.003e-12        
  5.442e-12        5.871e-12        5.202e-12        6.042e-12        
  5.608e-12        5.153e-12        5.440e-12        6.347e-12        
  2.741e-12        2.656e-12        2.460e-12        2.137e-12        
  2.884e-12        3.090e-12        2.743e-12        2.563e-12        
  5.260e-12        6.232e-12        6.390e-12        6.246e-12        
  4.898e-12        5.871e-12        4.857e-12        5.153e-12        
  2.741e-12        3.052e-12        2.884e-12        3.030e-12        
  5.260e-12        6.390e-12        4.993e-12        5.871e-12        
  2.741e-12        2.870e-12        1.681e-07        1.798e-05        
  9.457e-07       -7.549e-07         25.0000        1                 
