$DATA1 SOURCE='HSPICE' VERSION='F-2011.09-SP2 64-BIT'
.TITLE '$this uut was automatically generated by:'
 inv_avg_power0   peakpower0       trf_delay_01     tfr_delay_01      
 trf_delay_02     tfr_delay_02     trf_delay_03     tfr_delay_03      
 trf_delay_04     tfr_delay_04     inv_avg_power1   peakpower1        
 trf_delay_11     tfr_delay_11     trf_delay_12     tfr_delay_12      
 inv_avg_power2   peakpower2       trf_delay_21     tfr_delay_21      
 power_avg        avg_power        temper           alter#            
  2.854e-07        2.427e-05        8.058e-12        1.384e-11        
  9.248e-12        1.258e-11        8.253e-12        1.260e-11        
  8.254e-12        1.260e-11        1.275e-07        2.228e-05        
  8.058e-12        8.437e-12        8.253e-12        8.524e-12        
  6.898e-08        2.129e-05        8.058e-12        8.514e-12        
  9.603e-07       -7.969e-07         25.0000        1                 
