 ****** HSPICE -- F-2011.09-SP2 64-BIT (Feb 27 2012) linux ******               
  Copyright (C) 2011 Synopsys, Inc. All Rights Reserved.                        
  Unpublished-rights reserved under US copyright laws.
  This program is protected by law and is subject to the
  terms and conditions of the license agreement from Synopsys.
  Use of this program is your acceptance to be bound by the
  license agreement. HSPICE is the trademark of Synopsys, Inc.
  Input File: ptm20hp.sp                                                        
  Command line options: ptm20hp.sp
 lic:  
 lic: FLEXlm: v10.8 
 lic: USER:   iliabautista         HOSTNAME: itn3.rc.usf.edu 
 lic: HOSTID:                      PID:      89250 
 lic: Using FLEXlm license file: 
 lic: 27000@license0.rc.usf.edu 
 lic: Checkout 1 hspice 
 lic: License/Maintenance for hspice will expire on 18-jul-2021/2019.06 
 lic: 1(in_use)/50(total) FLOATING license(s) on SERVER license0.rc.usf.edu 
 lic:   
  **warning** (../modelfiles/hp/20nfet.pm:4) Model nfet device geometries will not be checked against the limits set by lmin, lmax, nfinmin and nfinmax. To enable this check, add a period(.) to the model name(i.e. enable model selector).
1****** HSPICE -- F-2011.09-SP2 64-BIT (Feb 27 2012) linux ******               
 ******  
 $this uut was automatically generated by:

  ******  circuit name directory
 circuit number to circuit name directory
   number circuitname                     definition         multiplier
        0 main circuit
        1 xinput_0.                       inverter           1.00 
        2 xinput_1.                       inverter           1.00 
        3 xinverter00.                    inverter           1.00 
        4 xinverter10.                    inverter           1.00 
        5 xinverter01.                    inverter           1.00 
        6 xinverter11.                    inverter           1.00 
        7 xoutput_00.                     inverter           1.00 
        8 xoutput_10.                     inverter           1.00 
        9 xinput_0.xpfet.                 pfet               1.00 
       10 xinput_0.xnfet.                 nfet               1.00 
       11 xinput_1.xpfet.                 pfet               1.00 
       12 xinput_1.xnfet.                 nfet               1.00 
       13 xinverter00.xpfet.              pfet               1.00 
       14 xinverter00.xnfet.              nfet               1.00 
       15 xinverter10.xpfet.              pfet               1.00 
       16 xinverter10.xnfet.              nfet               1.00 
       17 xinverter01.xpfet.              pfet               1.00 
       18 xinverter01.xnfet.              nfet               1.00 
       19 xinverter11.xpfet.              pfet               1.00 
       20 xinverter11.xnfet.              nfet               1.00 
       21 xoutput_00.xpfet.               pfet               1.00 
       22 xoutput_00.xnfet.               nfet               1.00 
       23 xoutput_10.xpfet.               pfet               1.00 
       24 xoutput_10.xnfet.               nfet               1.00 
1****** HSPICE -- F-2011.09-SP2 64-BIT (Feb 27 2012) linux ******               
 ******  
 $this uut was automatically generated by:

  ******  mos   model parameters tnom=  25.000 temp=  25.000 *****
 Model Name: pfet 
 BSIM-MG BULK Model(Level72)
   VERSION = 105.03  
   DEVTYPE = -1 
   BULKMOD = 1  
   COREMOD = 0 
   GEOMOD = 1 
   RDSMOD = 1 
   IGCMOD = 1 
   IGBMOD = 1 
   GIDLMOD = 0 
   IIMOD = 0 
   NQSMOD = 0 
   SHMOD = 0 
   RGATEMOD = 0 
   RGEOMOD = 1 
   CGEOMOD = 2 
   CAPMOD = 0 
   LINT =  1e-09 m
   LL =      0 m^(LLN+1)
   LLN =      1 
   DLC =      0 m
   DLBIN =      0 
   LLC =      0 m^(LLN+1)
   EOT = 8.4e-10 m
   TOXP = 1.4e-09 m
   EOTBOX = 1.4e-07 m
   HFIN = 2.8e-08 m
   FECH =      1 
   DELTAW =      0 m
   FECHCV =      1 
   DELTAWCV =      0 m
   NBODY =  5e+23 m^-3
   NSD =  3e+26 m^-3
   PHIG =  4.798 eV
   EPSROX =    3.9 
   EPSRSUB =   11.9 
   EASUB =   4.05 eV
   NI0SUB = 1.1e+16 m^-3
   BG0SUB =   1.12 eV
   NC0SUB = 2.86e+25 m^-3
   NGATE =      0 m^-3
   CIT = 1.3e-05 F/m^2
   CDSC = 0.0132 F/m^2
   CDSCD =  0.007 F/m^2
   CDSCDR =  0.007 
   DVT0 =   0.01 
   DVT1 =   0.69 
   PHIN =   0.05 V
   ETA0 =   0.71 
   ETA0R =   0.71 
   DSUB =    0.9 
   K1RSCE =      0 V^1/2
   LPE0 =  5e-09 m
   DVTSHIFT =      0 
   QMFACTOR =      0 
   QMTCENIV =      0 
   QMTCENCV =      0 
   AQMTCEN =      0 
   BQMTCEN = 1.2e-08 
   ETAQM =   0.54 
   QM0 = 0.001143 
   PQM =   0.66 
   QM0ACC =  0.001 
   PQMACC =   0.66 
   VSAT = 8.4e+04 
   AVSAT =      0 
   BVSAT =  1e-07 
   VSAT1 = 8.4e+04 
   AVSAT1 =      0 
   BVSAT1 =  1e-07 
   DELTAVSAT =      1 
   KSATIV =    0.8 
   MEXP =      3 
   AMEXP =      0 
   BMEXP =      1 
   PTWG =      0 
   APTWG =      0 
   BPTWG =  1e-07 
   AT = -0.00156 
   TMEXP =      0 
   PTWGT =  0.004 
   U0 =  0.026 
   ETAMOB =      2 
   UP =      0 
   LPA =      1 
   UA =    0.3 
   AUA =      0 
   BUA =  1e-07 
   EU =    1.8 
   AEU =      0 
   BEU =  1e-07 
   UD =      0 
   AUD =      0 
   BUD =  5e-08 
   UCS =      0 
   UTE =      0 
   UTL = -0.0015 
   UA1 = 0.001032 
   UD1 =      0 
   UCSTE = -0.00478 
   RDSWMIN =      0 
   RDSW =    100 
   ARDSW =      0 
   BRDSW =  1e-07 
   RSWMIN =      0 
   RSW =      0 
   ARSW =      0 
   BRSW =  1e-07 
   RDWMIN =      0 
   RDW =      0 
   ARDW =      0 
   BRDW =  1e-07 
   PRWG =      0 
   WR =      1 
   PRT =  0.001 
   PDIBL1 =    1.3 
   PDIBL2 = 0.0002 
   DROUT =   1.06 
   PVAG =      1 
   PCLM =    0.2 
   APCLM =      0 
   BPCLM =  1e-07 
   PCLMG =      0 
   VASAT =    0.6 
   PCLMCV =  0.013 
   PCLMGCV =      0 
   VASATCV =    0.2 
   RGEXT =      0 ohm
   RGFIN =  0.001 ohm
   RSHS =      0 ohm
   RSHD =      0 ohm
   HEPI =  1e-08 m
   TSILI =  1e-08 m
   RHOC =  5e-12 ohm/m^2
   RHORSD =      1 ohm/m
   RHOEXT =      1 ohm/m
   CRATIO =    0.5 
   DELTAPRSD =      0 m
   SDTERM = 0 
   LSP = 4.8e-09 m
   LDG =  3e-09 m
   EPSRSP =    3.9 
   TGATE =  1e-08 m
   TMASK =      0 m
   ASILIEND =      0 m^2
   ARSDEND =      0 m^2
   PRSDEND =      0 m
   NSDE =  3e+25 m^-3
   RGEOA =      1 
   RGEOB =      0 m^-1
   RGEOC =      0 m^-1
   RGEOD =      0 m^-1
   RGEOE =      0 m^-1
   CGEOA =      1 
   CGEOB =      0 m^-1
   CGEOC =      0 m^-1
   CGEOD =      0 m^-1
   CGEOE =      1 
   AIGBINV = 0.0111 (Fs^2/g)^0.5m^-1
   BIGBINV =   0.03 (Fs^2/g)^0.5m^-1
   CIGBINV =  0.006 V^-1
   EIGBINV =    1.1 V
   NIGBINV =    1.2 
   AIGBACC = 0.0149 
   BIGBACC = 0.000949 
   CIGBACC =  0.075 
   NIGBACC =      3 
   AIGC = 0.0136 (Fs^2/g)^0.5m^-1
   BIGC = 0.00171 (Fs^2/g)^0.5m^-1V^-1
   CIGC =  0.075 V^-1
   NIGC =      1 
   DLCIGS =      0 m
   AIGS = 0.0136 (Fs^2/g)^0.5m^-1
   BIGS = 0.00171 (Fs^2/g)^0.5m^-1V^-1
   CIGS =  0.075 V^-1
   DLCIGD =      0 m
   AIGD = 0.0136 (Fs^2/g)^0.5m^-1
   BIGD = 0.00171 (Fs^2/g)^0.5m^-1V^-1
   CIGD =  0.075 V^-1
   POXEDGE =      1 
   AGIDL = 5.729e-12 ohm^-1
   BGIDL =  3e+08 V/m
   EGIDL =    0.1 V
   AGISL = 5.729e-12 ohm^-1
   BGISL =  3e+08 V/m
   EGISL =    0.1 V
   ALPHA0 =      0 mV^-1
   ALPHA1 =      0 V^-1
   BETA0 =     30 V^-1
   ALPHAII =      0 
   BETAII0 =      0 V^-1
   BETAII1 =      0 
   BETAII2 =    0.1 V
   ESATII =  1e+07 V/m
   LII =  5e-10 V/m
   SII0 =    0.5 V^-1
   SII1 =    0.1 
   SII2 =      0 V
   SIID =      0 V
   EOTACC = 8.4e-10 m
   DELVFBACC =      0 V
   CFS = 2.56e-11 F/m
   CFD = 2.65e-11 F/m
   COVS = 2.5e-11 F/m
   COVD = 2.5e-11 F/m
   CGSO =      0 F/m
   CGDO =      0 F/m
   CGSL =      0 F/m
   CGDL =      0 F/m
   CKAPPAS =    0.6 V
   CKAPPAD =    0.6 V
   CGBO =      0 F/m
   CGBL =      0 F/m
   CKAPPAB =    0.6 V
   CSDESW =      0 F/m
   CJS = 0.0005 F/m^2
   CJD = 0.0005 F/m^2
   CJSWS =  5e-10 F/m
   CJSWD =  5e-10 F/m
   CJSWGS =      0 F/m
   CJSWGD =      0 F/m
   PBS =      1 V
   PBD =      1 V
   PBSWS =      1 V
   PBSWD =      1 V
   PBSWGS =      1 V
   PBSWGD =      1 V
   MJS, =    0.5 
   MJD =    0.5 
   MJSWS =   0.33 
   MJSWD =   0.33 
   MJSWGS =   0.33 
   MJSWGD =   0.33 
   SJS =      0 
   SJD =      0 
   SJSWS =      0 
   SJSWD =      0 
   SJSWGS =      0 
   SJSWGD =      0 
   MJS2 =  0.125 
   MJD2 =  0.125 
   MJSWS2 =   0.33 
   MJSWD2 =   0.33 
   MJSWGS2 =   0.33 
   MJSWGD2 =   0.33 
   JSS = 0.0001 A/m^2
   JSD = 0.0001 A/m^2
   JSWS =      0 A/m
   JSWD =      0 A/m
   JSWGS =      0 A/m
   JSWGD =      0 A/m
   NJS =      1 
   NJD =      1 
   IJTHSFWD =    0.1 A
   IJTHDFWD =    0.1 A
   IJTHSREV =    0.1 A
   IJTHDREV =    0.1 A
   BVS =     10 V
   BVD =     10 V
   XJBVS =      1 
   XJBVD =      1 
   JTSS =      0 A/m^2
   JTSD =      0 A/m^2
   JTSSWS =      0 A/m
   JTSSWD =      0 A/m
   JTSSWGS =      0 A/m
   JTSSWGD =      0 A/m
   JTWEFF =      0 m
   NJTS =     20 
   NJTSD =     20 
   NJTSSW =     20 
   NJTSSWD =     20 
   NJTSSWG =     20 
   NJTSSWGD =     20 
   VTSS =     10 V
   VTSD =     10 V
   VTSSWS =     10 V
   VTSSWD =     10 V
   VTSSWGS =     10 V
   VTSSWGD =     10 V
   LINTIGEN =      0 m
   NTGEN =      1 
   AIGEN =      0 m^-3V^-1
   BIGEN =      0 m^-3V^-3
   XRCRG1 =     12 
   XRCRG2 =      1 
   NSEG = 5 
   EF =      1 
   EM = 4.1e+07 V/m
   NOIA = 6.25e+39 eV^-1s^1-EFm^-3
   NOIB = 3.125e+24 eV^-1s^1-EFm^-1
   NOIC = 8.75e+07 eV^-1s^1-EFm
   NTNOI =      1 
   TNOM =  300.1 K
   TBGASUB = 0.000702 eV/K
   TBGBSUB =   1108 K
   KT1 =      0 V
   KT1L =      0 Vm
   IIT =   -0.5 
   TII =      0 
   TGIDL = -0.0003 K^-1
   IGT =    2.5 
   TCJ =      0 K^-1
   TCJSW =      0 K^-1
   TCJSWG =      0 K^-1
   TPB =      0 K^-1
   TPBSW =      0 K^-1
   TPBSWG =      0 K^-1
   XTIS =      3 
   XTID =      3 
   XTSS =   0.02 
   XTSD =   0.02 
   XTSSWS =   0.02 
   XTSSWD =   0.02 
   XTSSWGS =   0.02 
   XTSSWGD =   0.02 
   TNJTS =      0 
   TNJTSD =      0 
   TNJTSSW =      0 
   TNJTSSWD =      0 
   TNJTSSWG =      0 
   TNJTSSWGD =      0 
   RTH0 =   0.01 ohm
   CTH0 =  1e-05 F
   WTH0 =      0 m
   LNBODY =      0 
   NNBODY =      0 
   PNBODY =      0 
   LPHIG =      0 
   NPHIG =      0 
   PPHIG =      0 
   LNGATE =      0 
   NNGATE =      0 
   PNGATE =      0 
   LCIT =      0 
   NCIT =      0 
   PCIT =      0 
   LCDSC =      0 
   NCDSC =      0 
   PCDSC =      0 
   LCDSCD =      0 
   NCDSCD =      0 
   PCDSCD =      0 
   LCDSCDR =      0 
   NCDSCDR =      0 
   PCDSCDR =      0 
   LDVT0 =      0 
   NDVT0 =      0 
   PDVT0 =      0 
   LDVT1 =      0 
   NDVT1 =      0 
   PDVT1 =      0 
   LPHIN =      0 
   NPHIN =      0 
   PPHIN =      0 
   LETA0 =      0 
   NETA0 =      0 
   PETA0 =      0 
   LETA0R =      0 
   NETA0R =      0 
   PETA0R =      0 
   LDSUB =      0 
   NDSUB =      0 
   PDSUB =      0 
   LK1RSCE =      0 
   NK1RSCE =      0 
   PK1RSCE =      0 
   LLPE0 =      0 
   NLPE0 =      0 
   PLPE0 =      0 
   LQMFACTOR =      0 
   NQMFACTOR =      0 
   PQMFACTOR =      0 
   LQMTCENIV =      0 
   NQMTCENIV =      0 
   PQMTCENIV =      0 
   LQMTCENCV =      0 
   NQMTCENCV =      0 
   PQMTCENCV =      0 
   LVSAT =      0 
   NVSAT =      0 
   PVSAT =      0 
   LKSATIV =      0 
   NKSATIV =      0 
   PKSATIV =      0 
   LMEXP =      0 
   NMEXP =      0 
   PMEXP =      0 
   LPTWG =      0 
   NPTWG =      0 
   PPTWG =      0 
   LTHETASAT =      0 
   NTHETASAT =      0 
   PTHETASAT =      0 
   LU0 =      0 
   NU0 =      0 
   PU0 =      0 
   LUP =      0 
   NUP =      0 
   PUP =      0 
   LUA =      0 
   NUA =      0 
   PUA =      0 
   LEU =      0 
   NEU =      0 
   PEU =      0 
   LUD =      0 
   NUD =      0 
   PUD =      0 
   LUCS =      0 
   NUCS =      0 
   PUCS =      0 
   LPCLM =      0 
   NPCLM =      0 
   PPCLM =      0 
   LPCLMCV =      0 
   NPCLMCV =      0 
   PPCLMCV =      0 
   LRDSW =      0 
   NRDSW =      0 
   PRDSW =      0 
   LRSW =      0 
   NRSW =      0 
   PRSW =      0 
   LRDW =      0 
   NRDW =      0 
   PRDW =      0 
   LPRWG =      0 
   NPRWG =      0 
   PPRWG =      0 
   LWR =      0 
   NWR =      0 
   PWR =      0 
   LPDIBL1 =      0 
   NPDIBL1 =      0 
   PPDIBL1 =      0 
   LPDIBL2 =      0 
   NPDIBL2 =      0 
   PPDIBL2 =      0 
   LDROUT =      0 
   NDROUT =      0 
   PDROUT =      0 
   LPVAG =      0 
   NPVAG =      0 
   PPVAG =      0 
   LAIGBINV =      0 
   NAIGBINV =      0 
   PAIGBINV =      0 
   LBIGBINV =      0 
   NBIGBINV =      0 
   PBIGBINV =      0 
   LCIGBINV =      0 
   NCIGBINV =      0 
   PCIGBINV =      0 
   LEIGBINV =      0 
   NEIGBINV =      0 
   PEIGBINV =      0 
   LNIGBINV =      0 
   NNIGBINV =      0 
   PNIGBINV =      0 
   LAIGC =      0 
   NAIGC =      0 
   PAIGC =      0 
   LBIGC =      0 
   NBIGC =      0 
   PBIGC =      0 
   LCIGC =      0 
   NCIGC =      0 
   PCIGC =      0 
   LNIGC =      0 
   NNIGC =      0 
   PNIGC =      0 
   LAIGS =      0 
   NAIGS =      0 
   PAIGS =      0 
   LBIGS =      0 
   NBIGS =      0 
   PBIGS =      0 
   LCIGS =      0 
   NCIGS =      0 
   PCIGS =      0 
   LAIGD =      0 
   NAIGD =      0 
   PAIGD =      0 
   LBIGD =      0 
   NBIGD =      0 
   PBIGD =      0 
   LCIGD =      0 
   NCIGD =      0 
   PCIGD =      0 
   LPOXEDGE =      0 
   NPOXEDGE =      0 
   PPOXEDGE =      0 
   LAGIDL =      0 
   NAGIDL =      0 
   PAGIDL =      0 
   LBGIDL =      0 
   NBGIDL =      0 
   PBGIDL =      0 
   LEGIDL =      0 
   NEGIDL =      0 
   PEGIDL =      0 
   LAGISL =      0 
   NAGISL =      0 
   PAGISL =      0 
   LBGISL =      0 
   NBGISL =      0 
   PBGISL =      0 
   LEGISL =      0 
   NEGISL =      0 
   PEGISL =      0 
   LALPHA0 =      0 
   NALPHA0 =      0 
   PALPHA0 =      0 
   LALPHA1 =      0 
   NALPHA1 =      0 
   PALPHA1 =      0 
   LBETA0 =      0 
   NBETA0 =      0 
   PBETA0 =      0 
   LALPHAII =      0 
   NALPHAII =      0 
   PALPHAII =      0 
   LBETAII0 =      0 
   NBETAII0 =      0 
   PBETAII0 =      0 
   LBETAII1 =      0 
   NBETAII1 =      0 
   PBETAII1 =      0 
   LBETAII2 =      0 
   NBETAII2 =      0 
   PBETAII2 =      0 
   LESATII =      0 
   NESATII =      0 
   PESATII =      0 
   LLII =      0 
   NLII =      0 
   PLII =      0 
   LSII0 =      0 
   NSII0 =      0 
   PSII0 =      0 
   LSII1 =      0 
   NSII1 =      0 
   PSII1 =      0 
   LSII2 =      0 
   NSII2 =      0 
   PSII2 =      0 
   LSIID =      0 
   NSIID =      0 
   PSIID =      0 
   LCFS =      0 
   NCFS =      0 
   PCFS =      0 
   LCFD =      0 
   NCFD =      0 
   PCFD =      0 
   LCOVS =      0 
   NCOVS =      0 
   PCOVS =      0 
   LCOVD =      0 
   NCOVD =      0 
   PCOVD =      0 
   LCGSL =      0 
   NCGSL =      0 
   PCGSL =      0 
   LCGDL =      0 
   NCGDL =      0 
   PCGDL =      0 
   LCKAPPAS =      0 
   NCKAPPAS =      0 
   PCKAPPAS =      0 
   LCKAPPAD =      0 
   NCKAPPAD =      0 
   PCKAPPAD =      0 
   LCGBL =      0 
   NCGBL =      0 
   PCGBL =      0 
   LCKAPPAB =      0 
   NCKAPPAB =      0 
   PCKAPPAB =      0 
   LNTGEN =      0 
   NNTGEN =      0 
   PNTGEN =      0 
   LAIGEN =      0 
   NAIGEN =      0 
   PAIGEN =      0 
   LBIGEN =      0 
   NBIGEN =      0 
   PBIGEN =      0 
   LXRCRG1 =      0 
   NXRCRG1 =      0 
   PXRCRG1 =      0 
   LXRCRG2 =      0 
   NXRCRG2 =      0 
   PXRCRG2 =      0 
   LINTNOI =      0 
   NINTNOI =      0 
   PINTNOI =      0 
   LUTE =      0 
   NUTE =      0 
   PUTE =      0 
   LUTL =      0 
   NUTL =      0 
   PUTL =      0 
   LUA1 =      0 
   NUA1 =      0 
   PUA1 =      0 
   LUD1 =      0 
   NUD1 =      0 
   PUD1 =      0 
   LUCSTE =      0 
   NUCSTE =      0 
   PUCSTE =      0 
   LPTWGT =      0 
   NPTWGT =      0 
   PPTWGT =      0 
   LAT =      0 
   NAT =      0 
   PAT =      0 
   LSTTHETASAT =      0 
   NSTTHETASAT =      0 
   PSTTHETASAT =      0 
   LPRT =      0 
   NPRT =      0 
   PPRT =      0 
   LIIT =      0 
   NIIT =      0 
   PIIT =      0 
   LTII =      0 
   NTII =      0 
   PTII =      0 
   LTGIDL =      0 
   NTGIDL =      0 
   PTGIDL =      0 
   LIGT =      0 
   NIGT =      0 
   PIGT =      0 
   L = 2.4e-08 m
   D =  4e-08 m
   TFIN = 1.5e-08 m
   FPITCH =  6e-08 m
   NF = 1 
   NFIN = 1 
   NGCON = 1 
   ASEO =      0 m^2
   ADEO =      0 m^2
   PSEO =      0 m
   PDEO =      0 m
   ASEJ =      0 m^2
   ADEJ =      0 m^2
   PSEJ =      0 m
   PDEJ =      0 m
   CGSP =      0 F
   CGDP =      0 F
   CDSP =      0 F
   NRS =      0 
   NRD =      0 
   LRSD = 2.4e-08 m
   XL =      0 m
   DELVTRAND =      0 
   U0MULT =      1 
   IDS0MULT =      1 
   Lmin =  1e-08 m
   Lmax = 2.4e-08 m
   NFINmin = 0 
   NFINmax = 1 
   LVSAT1 =      0 
   NVSAT1 =      0 
   PVSAT1 =      0 
   LETAMOB =      0 
   NETAMOB =      0 
   PETAMOB =      0 
   LPCLMG =      0 
   NPCLMG =      0 
   PPCLMG =      0 
   LVASAT =      0 
   NVASAT =      0 
   PVASAT =      0 
   LAIGBACC =      0 
   NAIGBACC =      0 
   PAIGBACC =      0 
   LBIGBACC =      0 
   NBIGBACC =      0 
   PBIGBACC =      0 
   LCIGBACC =      0 
   NCIGBACC =      0 
   PCIGBACC =      0 
   LNIGBACC =      0 
   NNIGBACC =      0 
   PNIGBACC =      0 
 Model Name: nfet 
 BSIM-MG BULK Model(Level72)
   VERSION = 105.03  
   DEVTYPE = 1 
   BULKMOD = 1  
   COREMOD = 0 
   GEOMOD = 1 
   RDSMOD = 1 
   IGCMOD = 1 
   IGBMOD = 1 
   GIDLMOD = 0 
   IIMOD = 0 
   NQSMOD = 0 
   SHMOD = 0 
   RGATEMOD = 0 
   RGEOMOD = 1 
   CGEOMOD = 2 
   CAPMOD = 0 
   LINT =  1e-09 m
   LL =      0 m^(LLN+1)
   LLN =      1 
   DLC =      0 m
   DLBIN =      0 
   LLC =      0 m^(LLN+1)
   EOT = 8.4e-10 m
   TOXP = 1.4e-09 m
   EOTBOX = 1.4e-07 m
   HFIN = 2.8e-08 m
   FECH =      1 
   DELTAW =      0 m
   FECHCV =      1 
   DELTAWCV =      0 m
   NBODY =  5e+23 m^-3
   NSD =  3e+26 m^-3
   PHIG =  4.375 eV
   EPSROX =    3.9 
   EPSRSUB =   11.9 
   EASUB =   4.05 eV
   NI0SUB = 1.1e+16 m^-3
   BG0SUB =   1.12 eV
   NC0SUB = 2.86e+25 m^-3
   NGATE =      0 m^-3
   CIT = 1.3e-05 F/m^2
   CDSC = 0.0132 F/m^2
   CDSCD =  0.007 F/m^2
   CDSCDR =  0.007 
   DVT0 =   0.01 
   DVT1 =   0.69 
   PHIN =   0.05 V
   ETA0 = 0.5063 
   ETA0R = 0.5063 
   DSUB =    0.9 
   K1RSCE =      0 V^1/2
   LPE0 =  5e-09 m
   DVTSHIFT =      0 
   QMFACTOR =      0 
   QMTCENIV =      0 
   QMTCENCV =      0 
   AQMTCEN =      0 
   BQMTCEN = 1.2e-08 
   ETAQM =   0.54 
   QM0 = 0.001143 
   PQM =   0.66 
   QM0ACC =  0.001 
   PQMACC =   0.66 
   VSAT = 8.5e+04 
   AVSAT =      0 
   BVSAT =  1e-07 
   VSAT1 = 8.5e+04 
   AVSAT1 =      0 
   BVSAT1 =  1e-07 
   DELTAVSAT =      1 
   KSATIV =    0.8 
   MEXP =      3 
   AMEXP =      0 
   BMEXP =      1 
   PTWG =      0 
   APTWG =      0 
   BPTWG =  1e-07 
   AT = -0.00156 
   TMEXP =      0 
   PTWGT =  0.004 
   U0 =  0.038 
   ETAMOB =      2 
   UP =      0 
   LPA =      1 
   UA =    0.3 
   AUA =      0 
   BUA =  1e-07 
   EU =    1.8 
   AEU =      0 
   BEU =  1e-07 
   UD =      0 
   AUD =      0 
   BUD =  5e-08 
   UCS =      0 
   UTE =      0 
   UTL = -0.0015 
   UA1 = 0.001032 
   UD1 =      0 
   UCSTE = -0.00478 
   RDSWMIN =      0 
   RDSW =    100 
   ARDSW =      0 
   BRDSW =  1e-07 
   RSWMIN =      0 
   RSW =      0 
   ARSW =      0 
   BRSW =  1e-07 
   RDWMIN =      0 
   RDW =      0 
   ARDW =      0 
   BRDW =  1e-07 
   PRWG =      0 
   WR =      1 
   PRT =  0.001 
   PDIBL1 =    1.3 
   PDIBL2 = 0.0002 
   DROUT =   1.06 
   PVAG =      1 
   PCLM =    0.2 
   APCLM =      0 
   BPCLM =  1e-07 
   PCLMG =      0 
   VASAT =    0.6 
   PCLMCV =  0.013 
   PCLMGCV =      0 
   VASATCV =    0.2 
   RGEXT =      0 ohm
   RGFIN =  0.001 ohm
   RSHS =      0 ohm
   RSHD =      0 ohm
   HEPI =  1e-08 m
   TSILI =  1e-08 m
   RHOC =  4e-12 ohm/m^2
   RHORSD =      1 ohm/m
   RHOEXT =      1 ohm/m
   CRATIO =    0.5 
   DELTAPRSD =      0 m
   SDTERM = 0 
   LSP = 4.8e-09 m
   LDG =  3e-09 m
   EPSRSP =    3.9 
   TGATE =  1e-08 m
   TMASK =      0 m
   ASILIEND =      0 m^2
   ARSDEND =      0 m^2
   PRSDEND =      0 m
   NSDE =  3e+25 m^-3
   RGEOA =      1 
   RGEOB =      0 m^-1
   RGEOC =      0 m^-1
   RGEOD =      0 m^-1
   RGEOE =      0 m^-1
   CGEOA =      1 
   CGEOB =      0 m^-1
   CGEOC =      0 m^-1
   CGEOD =      0 m^-1
   CGEOE =      1 
   AIGBINV = 0.0111 (Fs^2/g)^0.5m^-1
   BIGBINV =   0.03 (Fs^2/g)^0.5m^-1
   CIGBINV =  0.006 V^-1
   EIGBINV =    1.1 V
   NIGBINV =    1.2 
   AIGBACC = 0.0149 
   BIGBACC = 0.000949 
   CIGBACC =  0.075 
   NIGBACC =      3 
   AIGC = 0.0136 (Fs^2/g)^0.5m^-1
   BIGC = 0.00171 (Fs^2/g)^0.5m^-1V^-1
   CIGC =  0.075 V^-1
   NIGC =      1 
   DLCIGS =      0 m
   AIGS = 0.0136 (Fs^2/g)^0.5m^-1
   BIGS = 0.00171 (Fs^2/g)^0.5m^-1V^-1
   CIGS =  0.075 V^-1
   DLCIGD =      0 m
   AIGD = 0.0136 (Fs^2/g)^0.5m^-1
   BIGD = 0.00171 (Fs^2/g)^0.5m^-1V^-1
   CIGD =  0.075 V^-1
   POXEDGE =      1 
   AGIDL = 5.729e-12 ohm^-1
   BGIDL =  3e+08 V/m
   EGIDL =    0.1 V
   AGISL = 5.729e-12 ohm^-1
   BGISL =  3e+08 V/m
   EGISL =    0.1 V
   ALPHA0 =      0 mV^-1
   ALPHA1 =      0 V^-1
   BETA0 =     30 V^-1
   ALPHAII =      0 
   BETAII0 =      0 V^-1
   BETAII1 =      0 
   BETAII2 =    0.1 V
   ESATII =  1e+07 V/m
   LII =  5e-10 V/m
   SII0 =    0.5 V^-1
   SII1 =    0.1 
   SII2 =      0 V
   SIID =      0 V
   EOTACC = 8.4e-10 m
   DELVFBACC =      0 V
   CFS = 2.56e-11 F/m
   CFD = 2.65e-11 F/m
   COVS = 2.5e-11 F/m
   COVD = 2.5e-11 F/m
   CGSO =      0 F/m
   CGDO =      0 F/m
   CGSL =      0 F/m
   CGDL =      0 F/m
   CKAPPAS =    0.6 V
   CKAPPAD =    0.6 V
   CGBO =      0 F/m
   CGBL =      0 F/m
   CKAPPAB =    0.6 V
   CSDESW =      0 F/m
   CJS = 0.0005 F/m^2
   CJD = 0.0005 F/m^2
   CJSWS =  5e-10 F/m
   CJSWD =  5e-10 F/m
   CJSWGS =      0 F/m
   CJSWGD =      0 F/m
   PBS =      1 V
   PBD =      1 V
   PBSWS =      1 V
   PBSWD =      1 V
   PBSWGS =      1 V
   PBSWGD =      1 V
   MJS, =    0.5 
   MJD =    0.5 
   MJSWS =   0.33 
   MJSWD =   0.33 
   MJSWGS =   0.33 
   MJSWGD =   0.33 
   SJS =      0 
   SJD =      0 
   SJSWS =      0 
   SJSWD =      0 
   SJSWGS =      0 
   SJSWGD =      0 
   MJS2 =  0.125 
   MJD2 =  0.125 
   MJSWS2 =   0.33 
   MJSWD2 =   0.33 
   MJSWGS2 =   0.33 
   MJSWGD2 =   0.33 
   JSS = 0.0001 A/m^2
   JSD = 0.0001 A/m^2
   JSWS =      0 A/m
   JSWD =      0 A/m
   JSWGS =      0 A/m
   JSWGD =      0 A/m
   NJS =      1 
   NJD =      1 
   IJTHSFWD =    0.1 A
   IJTHDFWD =    0.1 A
   IJTHSREV =    0.1 A
   IJTHDREV =    0.1 A
   BVS =     10 V
   BVD =     10 V
   XJBVS =      1 
   XJBVD =      1 
   JTSS =      0 A/m^2
   JTSD =      0 A/m^2
   JTSSWS =      0 A/m
   JTSSWD =      0 A/m
   JTSSWGS =      0 A/m
   JTSSWGD =      0 A/m
   JTWEFF =      0 m
   NJTS =     20 
   NJTSD =     20 
   NJTSSW =     20 
   NJTSSWD =     20 
   NJTSSWG =     20 
   NJTSSWGD =     20 
   VTSS =     10 V
   VTSD =     10 V
   VTSSWS =     10 V
   VTSSWD =     10 V
   VTSSWGS =     10 V
   VTSSWGD =     10 V
   LINTIGEN =      0 m
   NTGEN =      1 
   AIGEN =      0 m^-3V^-1
   BIGEN =      0 m^-3V^-3
   XRCRG1 =     12 
   XRCRG2 =      1 
   NSEG = 5 
   EF =      1 
   EM = 4.1e+07 V/m
   NOIA = 6.25e+39 eV^-1s^1-EFm^-3
   NOIB = 3.125e+24 eV^-1s^1-EFm^-1
   NOIC = 8.75e+07 eV^-1s^1-EFm
   NTNOI =      1 
   TNOM =  300.1 K
   TBGASUB = 0.000702 eV/K
   TBGBSUB =   1108 K
   KT1 =      0 V
   KT1L =      0 Vm
   IIT =   -0.5 
   TII =      0 
   TGIDL = -0.0003 K^-1
   IGT =    2.5 
   TCJ =      0 K^-1
   TCJSW =      0 K^-1
   TCJSWG =      0 K^-1
   TPB =      0 K^-1
   TPBSW =      0 K^-1
   TPBSWG =      0 K^-1
   XTIS =      3 
   XTID =      3 
   XTSS =   0.02 
   XTSD =   0.02 
   XTSSWS =   0.02 
   XTSSWD =   0.02 
   XTSSWGS =   0.02 
   XTSSWGD =   0.02 
   TNJTS =      0 
   TNJTSD =      0 
   TNJTSSW =      0 
   TNJTSSWD =      0 
   TNJTSSWG =      0 
   TNJTSSWGD =      0 
   RTH0 =   0.01 ohm
   CTH0 =  1e-05 F
   WTH0 =      0 m
   LNBODY =      0 
   NNBODY =      0 
   PNBODY =      0 
   LPHIG =      0 
   NPHIG =      0 
   PPHIG =      0 
   LNGATE =      0 
   NNGATE =      0 
   PNGATE =      0 
   LCIT =      0 
   NCIT =      0 
   PCIT =      0 
   LCDSC =      0 
   NCDSC =      0 
   PCDSC =      0 
   LCDSCD =      0 
   NCDSCD =      0 
   PCDSCD =      0 
   LCDSCDR =      0 
   NCDSCDR =      0 
   PCDSCDR =      0 
   LDVT0 =      0 
   NDVT0 =      0 
   PDVT0 =      0 
   LDVT1 =      0 
   NDVT1 =      0 
   PDVT1 =      0 
   LPHIN =      0 
   NPHIN =      0 
   PPHIN =      0 
   LETA0 =      0 
   NETA0 =      0 
   PETA0 =      0 
   LETA0R =      0 
   NETA0R =      0 
   PETA0R =      0 
   LDSUB =      0 
   NDSUB =      0 
   PDSUB =      0 
   LK1RSCE =      0 
   NK1RSCE =      0 
   PK1RSCE =      0 
   LLPE0 =      0 
   NLPE0 =      0 
   PLPE0 =      0 
   LQMFACTOR =      0 
   NQMFACTOR =      0 
   PQMFACTOR =      0 
   LQMTCENIV =      0 
   NQMTCENIV =      0 
   PQMTCENIV =      0 
   LQMTCENCV =      0 
   NQMTCENCV =      0 
   PQMTCENCV =      0 
   LVSAT =      0 
   NVSAT =      0 
   PVSAT =      0 
   LKSATIV =      0 
   NKSATIV =      0 
   PKSATIV =      0 
   LMEXP =      0 
   NMEXP =      0 
   PMEXP =      0 
   LPTWG =      0 
   NPTWG =      0 
   PPTWG =      0 
   LTHETASAT =      0 
   NTHETASAT =      0 
   PTHETASAT =      0 
   LU0 =      0 
   NU0 =      0 
   PU0 =      0 
   LUP =      0 
   NUP =      0 
   PUP =      0 
   LUA =      0 
   NUA =      0 
   PUA =      0 
   LEU =      0 
   NEU =      0 
   PEU =      0 
   LUD =      0 
   NUD =      0 
   PUD =      0 
   LUCS =      0 
   NUCS =      0 
   PUCS =      0 
   LPCLM =      0 
   NPCLM =      0 
   PPCLM =      0 
   LPCLMCV =      0 
   NPCLMCV =      0 
   PPCLMCV =      0 
   LRDSW =      0 
   NRDSW =      0 
   PRDSW =      0 
   LRSW =      0 
   NRSW =      0 
   PRSW =      0 
   LRDW =      0 
   NRDW =      0 
   PRDW =      0 
   LPRWG =      0 
   NPRWG =      0 
   PPRWG =      0 
   LWR =      0 
   NWR =      0 
   PWR =      0 
   LPDIBL1 =      0 
   NPDIBL1 =      0 
   PPDIBL1 =      0 
   LPDIBL2 =      0 
   NPDIBL2 =      0 
   PPDIBL2 =      0 
   LDROUT =      0 
   NDROUT =      0 
   PDROUT =      0 
   LPVAG =      0 
   NPVAG =      0 
   PPVAG =      0 
   LAIGBINV =      0 
   NAIGBINV =      0 
   PAIGBINV =      0 
   LBIGBINV =      0 
   NBIGBINV =      0 
   PBIGBINV =      0 
   LCIGBINV =      0 
   NCIGBINV =      0 
   PCIGBINV =      0 
   LEIGBINV =      0 
   NEIGBINV =      0 
   PEIGBINV =      0 
   LNIGBINV =      0 
   NNIGBINV =      0 
   PNIGBINV =      0 
   LAIGC =      0 
   NAIGC =      0 
   PAIGC =      0 
   LBIGC =      0 
   NBIGC =      0 
   PBIGC =      0 
   LCIGC =      0 
   NCIGC =      0 
   PCIGC =      0 
   LNIGC =      0 
   NNIGC =      0 
   PNIGC =      0 
   LAIGS =      0 
   NAIGS =      0 
   PAIGS =      0 
   LBIGS =      0 
   NBIGS =      0 
   PBIGS =      0 
   LCIGS =      0 
   NCIGS =      0 
   PCIGS =      0 
   LAIGD =      0 
   NAIGD =      0 
   PAIGD =      0 
   LBIGD =      0 
   NBIGD =      0 
   PBIGD =      0 
   LCIGD =      0 
   NCIGD =      0 
   PCIGD =      0 
   LPOXEDGE =      0 
   NPOXEDGE =      0 
   PPOXEDGE =      0 
   LAGIDL =      0 
   NAGIDL =      0 
   PAGIDL =      0 
   LBGIDL =      0 
   NBGIDL =      0 
   PBGIDL =      0 
   LEGIDL =      0 
   NEGIDL =      0 
   PEGIDL =      0 
   LAGISL =      0 
   NAGISL =      0 
   PAGISL =      0 
   LBGISL =      0 
   NBGISL =      0 
   PBGISL =      0 
   LEGISL =      0 
   NEGISL =      0 
   PEGISL =      0 
   LALPHA0 =      0 
   NALPHA0 =      0 
   PALPHA0 =      0 
   LALPHA1 =      0 
   NALPHA1 =      0 
   PALPHA1 =      0 
   LBETA0 =      0 
   NBETA0 =      0 
   PBETA0 =      0 
   LALPHAII =      0 
   NALPHAII =      0 
   PALPHAII =      0 
   LBETAII0 =      0 
   NBETAII0 =      0 
   PBETAII0 =      0 
   LBETAII1 =      0 
   NBETAII1 =      0 
   PBETAII1 =      0 
   LBETAII2 =      0 
   NBETAII2 =      0 
   PBETAII2 =      0 
   LESATII =      0 
   NESATII =      0 
   PESATII =      0 
   LLII =      0 
   NLII =      0 
   PLII =      0 
   LSII0 =      0 
   NSII0 =      0 
   PSII0 =      0 
   LSII1 =      0 
   NSII1 =      0 
   PSII1 =      0 
   LSII2 =      0 
   NSII2 =      0 
   PSII2 =      0 
   LSIID =      0 
   NSIID =      0 
   PSIID =      0 
   LCFS =      0 
   NCFS =      0 
   PCFS =      0 
   LCFD =      0 
   NCFD =      0 
   PCFD =      0 
   LCOVS =      0 
   NCOVS =      0 
   PCOVS =      0 
   LCOVD =      0 
   NCOVD =      0 
   PCOVD =      0 
   LCGSL =      0 
   NCGSL =      0 
   PCGSL =      0 
   LCGDL =      0 
   NCGDL =      0 
   PCGDL =      0 
   LCKAPPAS =      0 
   NCKAPPAS =      0 
   PCKAPPAS =      0 
   LCKAPPAD =      0 
   NCKAPPAD =      0 
   PCKAPPAD =      0 
   LCGBL =      0 
   NCGBL =      0 
   PCGBL =      0 
   LCKAPPAB =      0 
   NCKAPPAB =      0 
   PCKAPPAB =      0 
   LNTGEN =      0 
   NNTGEN =      0 
   PNTGEN =      0 
   LAIGEN =      0 
   NAIGEN =      0 
   PAIGEN =      0 
   LBIGEN =      0 
   NBIGEN =      0 
   PBIGEN =      0 
   LXRCRG1 =      0 
   NXRCRG1 =      0 
   PXRCRG1 =      0 
   LXRCRG2 =      0 
   NXRCRG2 =      0 
   PXRCRG2 =      0 
   LINTNOI =      0 
   NINTNOI =      0 
   PINTNOI =      0 
   LUTE =      0 
   NUTE =      0 
   PUTE =      0 
   LUTL =      0 
   NUTL =      0 
   PUTL =      0 
   LUA1 =      0 
   NUA1 =      0 
   PUA1 =      0 
   LUD1 =      0 
   NUD1 =      0 
   PUD1 =      0 
   LUCSTE =      0 
   NUCSTE =      0 
   PUCSTE =      0 
   LPTWGT =      0 
   NPTWGT =      0 
   PPTWGT =      0 
   LAT =      0 
   NAT =      0 
   PAT =      0 
   LSTTHETASAT =      0 
   NSTTHETASAT =      0 
   PSTTHETASAT =      0 
   LPRT =      0 
   NPRT =      0 
   PPRT =      0 
   LIIT =      0 
   NIIT =      0 
   PIIT =      0 
   LTII =      0 
   NTII =      0 
   PTII =      0 
   LTGIDL =      0 
   NTGIDL =      0 
   PTGIDL =      0 
   LIGT =      0 
   NIGT =      0 
   PIGT =      0 
   L = 2.4e-08 m
   D =  4e-08 m
   TFIN = 1.5e-08 m
   FPITCH =  6e-08 m
   NF = 1 
   NFIN = 1 
   NGCON = 1 
   ASEO =      0 m^2
   ADEO =      0 m^2
   PSEO =      0 m
   PDEO =      0 m
   ASEJ =      0 m^2
   ADEJ =      0 m^2
   PSEJ =      0 m
   PDEJ =      0 m
   CGSP =      0 F
   CGDP =      0 F
   CDSP =      0 F
   NRS =      0 
   NRD =      0 
   LRSD = 2.4e-08 m
   XL =      0 m
   DELVTRAND =      0 
   U0MULT =      1 
   IDS0MULT =      1 
   Lmin =  1e-08 m
   Lmax = 2.4e-08 m
   NFINmin = 0 
   NFINmax = 1 
   LVSAT1 =      0 
   NVSAT1 =      0 
   PVSAT1 =      0 
   LETAMOB =      0 
   NETAMOB =      0 
   PETAMOB =      0 
   LPCLMG =      0 
   NPCLMG =      0 
   PPCLMG =      0 
   LVASAT =      0 
   NVASAT =      0 
   PVASAT =      0 
   LAIGBACC =      0 
   NAIGBACC =      0 
   PAIGBACC =      0 
   LBIGBACC =      0 
   NBIGBACC =      0 
   PBIGBACC =      0 
   LCIGBACC =      0 
   NCIGBACC =      0 
   PCIGBACC =      0 
   LNIGBACC =      0 
   NNIGBACC =      0 
   PNIGBACC =      0 
  **info** (ptm20hp.sp:15) DC voltage reset to initial transient source value              in source        0:vin_0               new dc=  0.9000D+00
  
 **warning**  No DC path to ground from node        0:outin_30         defined in subckt 0               ; Connected by HSPICE with gdcpath


      
 **info** set option symb=1 internally to help for convergence.
 *****************************************************************
 ******  option summary
 ******
 runlvl  = 3         bypass  = 2         
  Opening plot unit= 15
 file=ptm20hp.pa0                                                              

1****** HSPICE -- F-2011.09-SP2 64-BIT (Feb 27 2012) linux ******               
 ******  
 $this uut was automatically generated by:

  ******  operating point information tnom=  25.000 temp=  25.000 *****
 ***** operating point status is voltage   simulation time is     0.     
     node    =voltage       node    =voltage       node    =voltage

 + 0:inb_0   = 900.0000m  0:inb_1   = 900.0000m  0:outb_00 = 899.0395m
 + 0:outb_10 = 899.0395m  0:outin_00= 425.5240u  0:outin_01= 425.5240u
 + 0:outin_10= 899.5633m  0:outin_11= 899.5633m  0:outin_20= 430.7087u
 + 0:outin_21= 430.7087u  0:outin_30=  28.8760m  0:outin_31=  28.8760m
 + 0:vdd     = 900.0000m

 ******  
 $this uut was automatically generated by:

  ******  transient analysis tnom=  25.000 temp=  25.000 *****
 trf_delay_001=   3.9818p  targ=  35.2697p   trig=  31.2879p
 tfr_delay_001=   5.1381p  targ=   1.0848n   trig=   1.0796n
 trf_delay_002=   3.9924p  targ=   2.0354n   trig=   2.0314n
 tfr_delay_002=   1.0439n  targ=   3.0840n   trig=   2.0401n
 trf_delay_101= 860.2498f  targ=   1.0856n   trig=   1.0848n
 tfr_delay_101= 392.5427f  targ=  35.6622p   trig=  35.2697p
 trf_delay_102=  -1.0440n  targ=   2.0400n   trig=   3.0840n
 tfr_delay_102=   2.0645p  targ=   2.0375n   trig=   2.0354n
 trf_delay_011=   3.9818p  targ=  35.2697p   trig=  31.2879p
 tfr_delay_011=   5.0480p  targ=   2.0852n   trig=   2.0801n
 trf_delay_111= 617.0949f  targ=   2.0858n   trig=   2.0852n
 tfr_delay_111= 392.5427f  targ=  35.6622p   trig=  35.2697p
x

        time    voltage      voltage    
                 outin_00     outin_10  
    0.          425.5240u    899.5633m  
   10.00000p     10.8552m    901.1145m  
   20.00000p    116.8615m    885.9819m  
   30.00000p    400.1461m    772.8069m  
   40.00000p    785.4893m    119.2503m  
   50.00000p    885.4683m      2.3420m  
   60.00000p    899.2623m    690.4792u  
   70.00000p    899.5825m    414.1653u  
   80.00000p    899.5602m    437.8702u  
   90.00000p    899.5871m    421.5164u  
  100.00000p    899.5758m    426.4541u  
  110.00000p    899.5645m    431.3918u  
  120.00000p    899.5533m    436.3295u  
  130.00000p    899.5547m    435.9475u  
  140.00000p    899.5586m    434.5595u  
  150.00000p    899.5625m    433.1716u  
  160.00000p    899.5664m    431.7836u  
  170.00000p    899.5702m    430.3956u  
  180.00000p    899.5741m    429.0077u  
  190.00000p    899.5780m    427.6197u  
  200.00000p    899.5819m    426.2317u  
  210.00000p    899.5829m    425.8208u  
  220.00000p    899.5814m    426.3023u  
  230.00000p    899.5799m    426.7837u  
  240.00000p    899.5785m    427.2652u  
  250.00000p    899.5770m    427.7466u  
  260.00000p    899.5755m    428.2281u  
  270.00000p    899.5740m    428.7095u  
  280.00000p    899.5725m    429.1910u  
  290.00000p    899.5710m    429.6725u  
  300.00000p    899.5695m    430.1539u  
  310.00000p    899.5680m    430.6354u  
  320.00000p    899.5665m    431.1168u  
  330.00000p    899.5650m    431.5983u  
  340.00000p    899.5635m    432.0797u  
  350.00000p    899.5620m    432.5612u  
  360.00000p    899.5605m    433.0426u  
  370.00000p    899.5590m    433.5241u  
  380.00000p    899.5575m    434.0055u  
  390.00000p    899.5560m    434.4870u  
  400.00000p    899.5545m    434.9685u  
  410.00000p    899.5546m    434.9736u  
  420.00000p    899.5560m    434.5437u  
  430.00000p    899.5574m    434.1138u  
  440.00000p    899.5589m    433.6839u  
  450.00000p    899.5603m    433.2541u  
  460.00000p    899.5617m    432.8242u  
  470.00000p    899.5632m    432.3943u  
  480.00000p    899.5646m    431.9644u  
  490.00000p    899.5660m    431.5345u  
  500.00000p    899.5674m    431.1047u  
  510.00000p    899.5689m    430.6748u  
  520.00000p    899.5703m    430.2449u  
  530.00000p    899.5717m    429.8150u  
  540.00000p    899.5732m    429.3851u  
  550.00000p    899.5746m    428.9552u  
  560.00000p    899.5760m    428.5254u  
  570.00000p    899.5775m    428.0955u  
  580.00000p    899.5789m    427.6656u  
  590.00000p    899.5803m    427.2357u  
  600.00000p    899.5818m    426.8058u  
  610.00000p    899.5817m    426.7997u  
  620.00000p    899.5804m    427.1805u  
  630.00000p    899.5790m    427.5613u  
  640.00000p    899.5776m    427.9422u  
  650.00000p    899.5762m    428.3230u  
  660.00000p    899.5749m    428.7039u  
  670.00000p    899.5735m    429.0847u  
  680.00000p    899.5721m    429.4655u  
  690.00000p    899.5708m    429.8464u  
  700.00000p    899.5694m    430.2272u  
  710.00000p    899.5680m    430.6081u  
  720.00000p    899.5667m    430.9889u  
  730.00000p    899.5653m    431.3697u  
  740.00000p    899.5639m    431.7506u  
  750.00000p    899.5625m    432.1314u  
  760.00000p    899.5612m    432.5122u  
  770.00000p    899.5598m    432.8931u  
  780.00000p    899.5584m    433.2739u  
  790.00000p    899.5571m    433.6548u  
  800.00000p    899.5557m    434.0356u  
  810.00000p    899.5557m    434.0427u  
  820.00000p    899.5570m    433.7085u  
  830.00000p    899.5583m    433.3743u  
  840.00000p    899.5597m    433.0400u  
  850.00000p    899.5610m    432.7058u  
  860.00000p    899.5623m    432.3716u  
  870.00000p    899.5636m    432.0374u  
  880.00000p    899.5649m    431.7031u  
  890.00000p    899.5662m    431.3689u  
  900.00000p    899.5675m    431.0347u  
  910.00000p    899.5688m    430.7005u  
  920.00000p    899.5702m    430.3662u  
  930.00000p    899.5715m    430.0320u  
  940.00000p    899.5728m    429.6978u  
  950.00000p    899.5741m    429.3636u  
  960.00000p    899.5754m    429.0294u  
  970.00000p    899.5767m    428.6951u  
  980.00000p    899.5780m    428.3609u  
  990.00000p    899.5793m    428.0267u  
    1.00000n    899.5807m    427.6925u  
    1.01000n    899.5786m    428.0498u  
    1.02000n    899.5734m    429.0387u  
    1.03000n    899.5682m    430.0276u  
    1.04000n    899.5630m    431.0165u  
    1.05000n    899.5578m    432.0054u  
    1.06000n    890.3760m   -840.1974u  
    1.07000n    782.7483m      5.9954m  
    1.08000n    434.3488m    137.2426m  
    1.09000n     75.7222m    785.3042m  
    1.10000n     11.1886m    897.8850m  
    1.11000n    561.2127u    899.2879m  
    1.12000n    407.0442u    899.6040m  
    1.13000n    430.4265u    899.5458m  
    1.14000n    422.0060u    899.5810m  
    1.15000n    422.8307u    899.5761m  
    1.16000n    424.6461u    899.5669m  
    1.17000n    426.4615u    899.5577m  
    1.18000n    428.2769u    899.5485m  
    1.19000n    427.9420u    899.5504m  
    1.20000n    427.3700u    899.5535m  
    1.21000n    426.7981u    899.5566m  
    1.22000n    426.2262u    899.5597m  
    1.23000n    425.6543u    899.5628m  
    1.24000n    425.0824u    899.5660m  
    1.25000n    424.5105u    899.5691m  
    1.26000n    423.9386u    899.5722m  
    1.27000n    423.3667u    899.5753m  
    1.28000n    423.1449u    899.5765m  
    1.29000n    423.3836u    899.5752m  
    1.30000n    423.6223u    899.5738m  
    1.31000n    423.8611u    899.5725m  
    1.32000n    424.0998u    899.5712m  
    1.33000n    424.3386u    899.5698m  
    1.34000n    424.5773u    899.5685m  
    1.35000n    424.8160u    899.5671m  
    1.36000n    425.0548u    899.5658m  
    1.37000n    425.2935u    899.5645m  
    1.38000n    425.5323u    899.5631m  
    1.39000n    425.7710u    899.5618m  
    1.40000n    426.0097u    899.5605m  
    1.41000n    426.2485u    899.5591m  
    1.42000n    426.4872u    899.5578m  
    1.43000n    426.7260u    899.5565m  
    1.44000n    426.9647u    899.5551m  
    1.45000n    427.2034u    899.5538m  
    1.46000n    427.4422u    899.5524m  
    1.47000n    427.6809u    899.5511m  
    1.48000n    427.7213u    899.5509m  
    1.49000n    427.5009u    899.5521m  
    1.50000n    427.2804u    899.5534m  
    1.51000n    427.0599u    899.5546m  
    1.52000n    426.8395u    899.5559m  
    1.53000n    426.6190u    899.5572m  
    1.54000n    426.3985u    899.5584m  
    1.55000n    426.1780u    899.5597m  
    1.56000n    425.9576u    899.5609m  
    1.57000n    425.7371u    899.5622m  
    1.58000n    425.5166u    899.5634m  
    1.59000n    425.2962u    899.5647m  
    1.60000n    425.0757u    899.5659m  
    1.61000n    424.8552u    899.5672m  
    1.62000n    424.6347u    899.5684m  
    1.63000n    424.4143u    899.5697m  
    1.64000n    424.1938u    899.5709m  
    1.65000n    423.9733u    899.5722m  
    1.66000n    423.7528u    899.5735m  
    1.67000n    423.5324u    899.5747m  
    1.68000n    423.4950u    899.5749m  
    1.69000n    423.6984u    899.5737m  
    1.70000n    423.9019u    899.5726m  
    1.71000n    424.1054u    899.5714m  
    1.72000n    424.3088u    899.5702m  
    1.73000n    424.5123u    899.5690m  
    1.74000n    424.7158u    899.5679m  
    1.75000n    424.9192u    899.5667m  
    1.76000n    425.1227u    899.5655m  
    1.77000n    425.3261u    899.5643m  
    1.78000n    425.5296u    899.5632m  
    1.79000n    425.7331u    899.5620m  
    1.80000n    425.9365u    899.5608m  
    1.81000n    426.1400u    899.5596m  
    1.82000n    426.3434u    899.5585m  
    1.83000n    426.5469u    899.5573m  
    1.84000n    426.7504u    899.5561m  
    1.85000n    426.9538u    899.5549m  
    1.86000n    427.1573u    899.5538m  
    1.87000n    427.3608u    899.5526m  
    1.88000n    427.3488u    899.5527m  
    1.89000n    427.0534u    899.5544m  
    1.90000n    426.7579u    899.5561m  
    1.91000n    426.4625u    899.5579m  
    1.92000n    426.1671u    899.5596m  
    1.93000n    425.8717u    899.5613m  
    1.94000n    425.5763u    899.5631m  
    1.95000n    425.2809u    899.5648m  
    1.96000n    424.9854u    899.5665m  
    1.97000n    424.6900u    899.5683m  
    1.98000n    424.3946u    899.5700m  
    1.99000n    424.0992u    899.5717m  
    2.00000n    423.8038u    899.5735m  
    2.01000n      8.1644m    901.0500m  
    2.02000n    116.0644m    893.4895m  
    2.03000n    374.9532m    825.2481m  
    2.04000n    490.6525m   -901.5978m  
    2.05000n      1.7375     -97.1015m  
    2.06000n    905.9331m     -4.9664m  
    2.07000n    899.6225m    392.6173u  
    2.08000n    899.5461m    442.1222u  
    2.09000n    899.5703m    434.7297u  
    2.10000n    899.5684m    430.6405u  
    2.11000n    899.5684m    430.6480u  
    2.12000n    899.5684m    430.6480u  
    2.13000n    899.5684m    430.6480u  
    2.14000n    899.5684m    430.6480u  
    2.15000n    899.5684m    430.6480u  
    2.16000n    899.5684m    430.6480u  
    2.17000n    899.5684m    430.6480u  
    2.18000n    899.5684m    430.6480u  
    2.19000n    899.5684m    430.6480u  
    2.20000n    899.5684m    430.6480u  
    2.21000n    899.5684m    430.6480u  
    2.22000n    899.5684m    430.6480u  
    2.23000n    899.5684m    430.6480u  
    2.24000n    899.5684m    430.6480u  
    2.25000n    899.5684m    430.6480u  
    2.26000n    899.5684m    430.6480u  
    2.27000n    899.5684m    430.6480u  
    2.28000n    899.5684m    430.6480u  
    2.29000n    899.5684m    430.6480u  
    2.30000n    899.5684m    430.6480u  
    2.31000n    899.5684m    430.6480u  
    2.32000n    899.5684m    430.6480u  
    2.33000n    899.5684m    430.6480u  
    2.34000n    899.5684m    430.6480u  
    2.35000n    899.5684m    430.6480u  
    2.36000n    899.5684m    430.6480u  
    2.37000n    899.5684m    430.6480u  
    2.38000n    899.5684m    430.6480u  
    2.39000n    899.5684m    430.6480u  
    2.40000n    899.5684m    430.6480u  
    2.41000n    899.5684m    430.6480u  
    2.42000n    899.5684m    430.6480u  
    2.43000n    899.5684m    430.6480u  
    2.44000n    899.5684m    430.6480u  
    2.45000n    899.5684m    430.6480u  
    2.46000n    899.5684m    430.6480u  
    2.47000n    899.5684m    430.6480u  
    2.48000n    899.5684m    430.6480u  
    2.49000n    899.5684m    430.6480u  
    2.50000n    899.5684m    430.6480u  
    2.51000n    899.5684m    430.6480u  
    2.52000n    899.5684m    430.6480u  
    2.53000n    899.5684m    430.6480u  
    2.54000n    899.5684m    430.6480u  
    2.55000n    899.5684m    430.6480u  
    2.56000n    899.5684m    430.6480u  
    2.57000n    899.5684m    430.6480u  
    2.58000n    899.5684m    430.6480u  
    2.59000n    899.5684m    430.6480u  
    2.60000n    899.5684m    430.6480u  
    2.61000n    899.5684m    430.6480u  
    2.62000n    899.5684m    430.6480u  
    2.63000n    899.5684m    430.6480u  
    2.64000n    899.5684m    430.6480u  
    2.65000n    899.5684m    430.6480u  
    2.66000n    899.5684m    430.6480u  
    2.67000n    899.5684m    430.6480u  
    2.68000n    899.5684m    430.6480u  
    2.69000n    899.5684m    430.6480u  
    2.70000n    899.5684m    430.6480u  
    2.71000n    899.5684m    430.6480u  
    2.72000n    899.5684m    430.6480u  
    2.73000n    899.5684m    430.6480u  
    2.74000n    899.5684m    430.6480u  
    2.75000n    899.5684m    430.6480u  
    2.76000n    899.5684m    430.6480u  
    2.77000n    899.5684m    430.6480u  
    2.78000n    899.5684m    430.6480u  
    2.79000n    899.5684m    430.6480u  
    2.80000n    899.5684m    430.6480u  
    2.81000n    899.5684m    430.6480u  
    2.82000n    899.5684m    430.6480u  
    2.83000n    899.5684m    430.6480u  
    2.84000n    899.5684m    430.6480u  
    2.85000n    899.5684m    430.6480u  
    2.86000n    899.5684m    430.6480u  
    2.87000n    899.5684m    430.6480u  
    2.88000n    899.5684m    430.6480u  
    2.89000n    899.5684m    430.6480u  
    2.90000n    899.5684m    430.6480u  
    2.91000n    899.5684m    430.6480u  
    2.92000n    899.5684m    430.6480u  
    2.93000n    899.5684m    430.6480u  
    2.94000n    899.5684m    430.6480u  
    2.95000n    899.5684m    430.6480u  
    2.96000n    899.5684m    430.6480u  
    2.97000n    899.5684m    430.6480u  
    2.98000n    899.5684m    430.6480u  
    2.99000n    899.5684m    430.6480u  
    3.00000n    899.5684m    430.6480u  
    3.01000n    899.5684m    430.6480u  
    3.02000n    899.5684m    430.6480u  
    3.03000n    899.5684m    430.6480u  
    3.04000n    899.5684m    430.6480u  
    3.05000n    899.5684m    430.6480u  
    3.06000n    890.7098m     -1.0860m  
    3.07000n    694.6105m     33.6942m  
    3.08000n    424.1901m    204.2105m  
    3.09000n     74.3537m    793.9264m  
    3.10000n     10.6407m    898.3767m  
    3.11000n    458.9051u    899.3405m  
    3.12000n    431.4602u    899.6640m  
    3.13000n    408.0345u    899.5210m  
    3.14000n    426.6554u    899.5591m  
    3.15000n    444.2855u    899.5952m  
    3.16000n    437.3992u    899.5841m  
    3.17000n    430.5129u    899.5730m  
    3.18000n    423.6266u    899.5619m  
    3.19000n    416.7404u    899.5508m  
    3.20000n    409.8541u    899.5397m  
    3.21000n    409.7488u    899.5393m  
    3.22000n    412.8683u    899.5439m  
    3.23000n    415.9879u    899.5485m  
    3.24000n    419.1075u    899.5531m  
    3.25000n    422.2270u    899.5577m  
    3.26000n    425.3466u    899.5623m  
    3.27000n    428.4661u    899.5670m  
    3.28000n    431.5857u    899.5716m  
    3.29000n    434.7053u    899.5762m  
    3.30000n    437.8248u    899.5808m  
    3.31000n    440.9444u    899.5854m  
    3.32000n    442.1821u    899.5873m  
    3.33000n    440.4656u    899.5848m  
    3.34000n    438.7490u    899.5824m  
    3.35000n    437.0325u    899.5800m  
    3.36000n    435.3159u    899.5775m  
    3.37000n    433.5994u    899.5751m  
    3.38000n    431.8828u    899.5727m  
    3.39000n    430.1663u    899.5702m  
    3.40000n    428.4497u    899.5678m  
    3.41000n    426.7332u    899.5654m  
    3.42000n    425.0166u    899.5629m  
    3.43000n    423.3001u    899.5605m  
    3.44000n    421.5835u    899.5581m  
    3.45000n    419.8670u    899.5556m  
    3.46000n    418.1504u    899.5532m  
    3.47000n    416.4339u    899.5507m  
    3.48000n    414.7173u    899.5483m  
    3.49000n    413.0008u    899.5459m  
    3.50000n    411.2842u    899.5434m  
    3.51000n    409.5677u    899.5410m  
    3.52000n    409.1745u    899.5404m  
    3.53000n    410.8588u    899.5427m  
    3.54000n    412.5432u    899.5451m  
    3.55000n    414.2275u    899.5474m  
    3.56000n    415.9119u    899.5497m  
    3.57000n    417.5963u    899.5520m  
    3.58000n    419.2806u    899.5543m  
    3.59000n    420.9650u    899.5567m  
    3.60000n    422.6493u    899.5590m  
    3.61000n    424.3337u    899.5613m  
    3.62000n    426.0180u    899.5636m  
    3.63000n    427.7024u    899.5659m  
    3.64000n    429.3868u    899.5683m  
    3.65000n    431.0711u    899.5706m  
    3.66000n    432.7555u    899.5729m  
    3.67000n    434.4398u    899.5752m  
    3.68000n    436.1242u    899.5776m  
    3.69000n    437.8085u    899.5799m  
    3.70000n    439.4929u    899.5822m  
    3.71000n    441.1773u    899.5845m  
    3.72000n    441.5634u    899.5851m  
    3.73000n    439.9114u    899.5829m  
    3.74000n    438.2594u    899.5807m  
    3.75000n    436.6074u    899.5784m  
    3.76000n    434.9554u    899.5762m  
    3.77000n    433.3034u    899.5740m  
    3.78000n    431.6514u    899.5718m  
    3.79000n    429.9994u    899.5696m  
    3.80000n    428.3474u    899.5674m  
    3.81000n    426.6954u    899.5652m  
    3.82000n    425.0434u    899.5630m  
    3.83000n    423.3914u    899.5608m  
    3.84000n    421.7394u    899.5585m  
    3.85000n    420.0874u    899.5563m  
    3.86000n    418.4354u    899.5541m  
    3.87000n    416.7834u    899.5519m  
    3.88000n    415.1314u    899.5497m  
    3.89000n    413.4794u    899.5475m  
    3.90000n    411.8274u    899.5453m  
    3.91000n    410.1754u    899.5431m  
    3.92000n    410.6477u    899.5436m  
    3.93000n    414.4550u    899.5485m  
    3.94000n    418.2623u    899.5533m  
    3.95000n    422.0696u    899.5582m  
    3.96000n    425.8769u    899.5630m  
    3.97000n    429.6842u    899.5679m  
    3.98000n    433.4915u    899.5727m  
    3.99000n    437.2988u    899.5776m  
    4.00000n    441.1061u    899.5824m  
y
x

        time    voltage      voltage    
                 outin_10     outin_20  
    0.          899.5633m    430.7087u  
   10.00000p    901.1145m    631.5797u  
   20.00000p    885.9819m   -259.4561u  
   30.00000p    772.8069m     50.6838m  
   40.00000p    119.2503m    835.2463m  
   50.00000p      2.3420m    898.8071m  
   60.00000p    690.4792u    899.4616m  
   70.00000p    414.1653u    899.5596m  
   80.00000p    437.8702u    899.5610m  
   90.00000p    421.5164u    899.5855m  
  100.00000p    426.4541u    899.5709m  
  110.00000p    431.3918u    899.5562m  
  120.00000p    436.3295u    899.5415m  
  130.00000p    435.9475u    899.5440m  
  140.00000p    434.5595u    899.5497m  
  150.00000p    433.1716u    899.5555m  
  160.00000p    431.7836u    899.5612m  
  170.00000p    430.3956u    899.5669m  
  180.00000p    429.0077u    899.5726m  
  190.00000p    427.6197u    899.5784m  
  200.00000p    426.2317u    899.5841m  
  210.00000p    425.8208u    899.5856m  
  220.00000p    426.3023u    899.5833m  
  230.00000p    426.7837u    899.5810m  
  240.00000p    427.2652u    899.5786m  
  250.00000p    427.7466u    899.5763m  
  260.00000p    428.2281u    899.5740m  
  270.00000p    428.7095u    899.5717m  
  280.00000p    429.1910u    899.5693m  
  290.00000p    429.6725u    899.5670m  
  300.00000p    430.1539u    899.5647m  
  310.00000p    430.6354u    899.5624m  
  320.00000p    431.1168u    899.5600m  
  330.00000p    431.5983u    899.5577m  
  340.00000p    432.0797u    899.5554m  
  350.00000p    432.5612u    899.5531m  
  360.00000p    433.0426u    899.5507m  
  370.00000p    433.5241u    899.5484m  
  380.00000p    434.0055u    899.5461m  
  390.00000p    434.4870u    899.5438m  
  400.00000p    434.9685u    899.5415m  
  410.00000p    434.9736u    899.5415m  
  420.00000p    434.5437u    899.5438m  
  430.00000p    434.1138u    899.5461m  
  440.00000p    433.6839u    899.5484m  
  450.00000p    433.2541u    899.5507m  
  460.00000p    432.8242u    899.5530m  
  470.00000p    432.3943u    899.5553m  
  480.00000p    431.9644u    899.5576m  
  490.00000p    431.5345u    899.5599m  
  500.00000p    431.1047u    899.5622m  
  510.00000p    430.6748u    899.5645m  
  520.00000p    430.2449u    899.5667m  
  530.00000p    429.8150u    899.5690m  
  540.00000p    429.3851u    899.5713m  
  550.00000p    428.9552u    899.5736m  
  560.00000p    428.5254u    899.5759m  
  570.00000p    428.0955u    899.5782m  
  580.00000p    427.6656u    899.5805m  
  590.00000p    427.2357u    899.5828m  
  600.00000p    426.8058u    899.5851m  
  610.00000p    426.7997u    899.5850m  
  620.00000p    427.1805u    899.5827m  
  630.00000p    427.5613u    899.5805m  
  640.00000p    427.9422u    899.5782m  
  650.00000p    428.3230u    899.5760m  
  660.00000p    428.7039u    899.5737m  
  670.00000p    429.0847u    899.5714m  
  680.00000p    429.4655u    899.5692m  
  690.00000p    429.8464u    899.5669m  
  700.00000p    430.2272u    899.5646m  
  710.00000p    430.6081u    899.5624m  
  720.00000p    430.9889u    899.5601m  
  730.00000p    431.3697u    899.5579m  
  740.00000p    431.7506u    899.5556m  
  750.00000p    432.1314u    899.5533m  
  760.00000p    432.5122u    899.5511m  
  770.00000p    432.8931u    899.5488m  
  780.00000p    433.2739u    899.5466m  
  790.00000p    433.6548u    899.5443m  
  800.00000p    434.0356u    899.5420m  
  810.00000p    434.0427u    899.5421m  
  820.00000p    433.7085u    899.5444m  
  830.00000p    433.3743u    899.5466m  
  840.00000p    433.0400u    899.5488m  
  850.00000p    432.7058u    899.5510m  
  860.00000p    432.3716u    899.5533m  
  870.00000p    432.0374u    899.5555m  
  880.00000p    431.7031u    899.5577m  
  890.00000p    431.3689u    899.5600m  
  900.00000p    431.0347u    899.5622m  
  910.00000p    430.7005u    899.5644m  
  920.00000p    430.3662u    899.5667m  
  930.00000p    430.0320u    899.5689m  
  940.00000p    429.6978u    899.5711m  
  950.00000p    429.3636u    899.5734m  
  960.00000p    429.0294u    899.5756m  
  970.00000p    428.6951u    899.5778m  
  980.00000p    428.3609u    899.5801m  
  990.00000p    428.0267u    899.5823m  
    1.00000n    427.6925u    899.5845m  
    1.01000n    428.0498u    899.5806m  
    1.02000n    429.0387u    899.5711m  
    1.03000n    430.0276u    899.5615m  
    1.04000n    431.0165u    899.5520m  
    1.05000n    432.0054u    899.5424m  
    1.06000n   -840.1974u    899.2241m  
    1.07000n      5.9954m    900.3189m  
    1.08000n    137.2426m    843.2092m  
    1.09000n    785.3042m    114.6173m  
    1.10000n    897.8850m    847.0269u  
    1.11000n    899.2879m    521.4439u  
    1.12000n    899.6040m    420.8393u  
    1.13000n    899.5458m    443.5562u  
    1.14000n    899.5810m    404.2954u  
    1.15000n    899.5761m    413.5756u  
    1.16000n    899.5669m    428.0573u  
    1.17000n    899.5577m    442.5390u  
    1.18000n    899.5485m    457.0207u  
    1.19000n    899.5504m    453.2664u  
    1.20000n    899.5535m    447.5023u  
    1.21000n    899.5566m    441.7383u  
    1.22000n    899.5597m    435.9742u  
    1.23000n    899.5628m    430.2101u  
    1.24000n    899.5660m    424.4460u  
    1.25000n    899.5691m    418.6820u  
    1.26000n    899.5722m    412.9179u  
    1.27000n    899.5753m    407.1538u  
    1.28000n    899.5765m    405.0288u  
    1.29000n    899.5752m    407.6911u  
    1.30000n    899.5738m    410.3534u  
    1.31000n    899.5725m    413.0157u  
    1.32000n    899.5712m    415.6779u  
    1.33000n    899.5698m    418.3402u  
    1.34000n    899.5685m    421.0025u  
    1.35000n    899.5671m    423.6648u  
    1.36000n    899.5658m    426.3270u  
    1.37000n    899.5645m    428.9893u  
    1.38000n    899.5631m    431.6516u  
    1.39000n    899.5618m    434.3139u  
    1.40000n    899.5605m    436.9761u  
    1.41000n    899.5591m    439.6384u  
    1.42000n    899.5578m    442.3007u  
    1.43000n    899.5565m    444.9630u  
    1.44000n    899.5551m    447.6253u  
    1.45000n    899.5538m    450.2875u  
    1.46000n    899.5524m    452.9498u  
    1.47000n    899.5511m    455.6121u  
    1.48000n    899.5509m    455.9925u  
    1.49000n    899.5521m    453.3710u  
    1.50000n    899.5534m    450.7495u  
    1.51000n    899.5546m    448.1280u  
    1.52000n    899.5559m    445.5066u  
    1.53000n    899.5572m    442.8851u  
    1.54000n    899.5584m    440.2636u  
    1.55000n    899.5597m    437.6422u  
    1.56000n    899.5609m    435.0207u  
    1.57000n    899.5622m    432.3992u  
    1.58000n    899.5634m    429.7777u  
    1.59000n    899.5647m    427.1563u  
    1.60000n    899.5659m    424.5348u  
    1.61000n    899.5672m    421.9133u  
    1.62000n    899.5684m    419.2919u  
    1.63000n    899.5697m    416.6704u  
    1.64000n    899.5709m    414.0489u  
    1.65000n    899.5722m    411.4274u  
    1.66000n    899.5735m    408.8060u  
    1.67000n    899.5747m    406.1845u  
    1.68000n    899.5749m    405.8102u  
    1.69000n    899.5737m    408.3922u  
    1.70000n    899.5726m    410.9742u  
    1.71000n    899.5714m    413.5562u  
    1.72000n    899.5702m    416.1381u  
    1.73000n    899.5690m    418.7201u  
    1.74000n    899.5679m    421.3021u  
    1.75000n    899.5667m    423.8840u  
    1.76000n    899.5655m    426.4660u  
    1.77000n    899.5643m    429.0480u  
    1.78000n    899.5632m    431.6300u  
    1.79000n    899.5620m    434.2119u  
    1.80000n    899.5608m    436.7939u  
    1.81000n    899.5596m    439.3759u  
    1.82000n    899.5585m    441.9578u  
    1.83000n    899.5573m    444.5398u  
    1.84000n    899.5561m    447.1218u  
    1.85000n    899.5549m    449.7038u  
    1.86000n    899.5538m    452.2857u  
    1.87000n    899.5526m    454.8677u  
    1.88000n    899.5527m    454.5749u  
    1.89000n    899.5544m    450.5005u  
    1.90000n    899.5561m    446.4260u  
    1.91000n    899.5579m    442.3515u  
    1.92000n    899.5596m    438.2771u  
    1.93000n    899.5613m    434.2026u  
    1.94000n    899.5631m    430.1282u  
    1.95000n    899.5648m    426.0537u  
    1.96000n    899.5665m    421.9792u  
    1.97000n    899.5683m    417.9048u  
    1.98000n    899.5700m    413.8303u  
    1.99000n    899.5717m    409.7558u  
    2.00000n    899.5735m    405.6814u  
    2.01000n    901.0500m    725.4468u  
    2.02000n    893.4895m    -85.3983u  
    2.03000n    825.2481m     -5.2822m  
    2.04000n   -901.5978m    472.8491m  
    2.05000n    -97.1015m      1.1570   
    2.06000n     -4.9664m    901.4993m  
    2.07000n    392.6173u    899.5919m  
    2.08000n    442.1222u    899.5487m  
    2.09000n    434.7297u    899.5697m  
    2.10000n    430.6405u    899.5634m  
    2.11000n    430.6480u    899.5634m  
    2.12000n    430.6480u    899.5634m  
    2.13000n    430.6480u    899.5634m  
    2.14000n    430.6480u    899.5634m  
    2.15000n    430.6480u    899.5634m  
    2.16000n    430.6480u    899.5634m  
    2.17000n    430.6480u    899.5634m  
    2.18000n    430.6480u    899.5634m  
    2.19000n    430.6480u    899.5634m  
    2.20000n    430.6480u    899.5634m  
    2.21000n    430.6480u    899.5634m  
    2.22000n    430.6480u    899.5634m  
    2.23000n    430.6480u    899.5634m  
    2.24000n    430.6480u    899.5634m  
    2.25000n    430.6480u    899.5634m  
    2.26000n    430.6480u    899.5634m  
    2.27000n    430.6480u    899.5634m  
    2.28000n    430.6480u    899.5634m  
    2.29000n    430.6480u    899.5634m  
    2.30000n    430.6480u    899.5634m  
    2.31000n    430.6480u    899.5634m  
    2.32000n    430.6480u    899.5634m  
    2.33000n    430.6480u    899.5634m  
    2.34000n    430.6480u    899.5634m  
    2.35000n    430.6480u    899.5634m  
    2.36000n    430.6480u    899.5634m  
    2.37000n    430.6480u    899.5634m  
    2.38000n    430.6480u    899.5634m  
    2.39000n    430.6480u    899.5634m  
    2.40000n    430.6480u    899.5634m  
    2.41000n    430.6480u    899.5634m  
    2.42000n    430.6480u    899.5634m  
    2.43000n    430.6480u    899.5634m  
    2.44000n    430.6480u    899.5634m  
    2.45000n    430.6480u    899.5634m  
    2.46000n    430.6480u    899.5634m  
    2.47000n    430.6480u    899.5634m  
    2.48000n    430.6480u    899.5634m  
    2.49000n    430.6480u    899.5634m  
    2.50000n    430.6480u    899.5634m  
    2.51000n    430.6480u    899.5634m  
    2.52000n    430.6480u    899.5634m  
    2.53000n    430.6480u    899.5634m  
    2.54000n    430.6480u    899.5634m  
    2.55000n    430.6480u    899.5634m  
    2.56000n    430.6480u    899.5634m  
    2.57000n    430.6480u    899.5634m  
    2.58000n    430.6480u    899.5634m  
    2.59000n    430.6480u    899.5634m  
    2.60000n    430.6480u    899.5634m  
    2.61000n    430.6480u    899.5634m  
    2.62000n    430.6480u    899.5634m  
    2.63000n    430.6480u    899.5634m  
    2.64000n    430.6480u    899.5634m  
    2.65000n    430.6480u    899.5634m  
    2.66000n    430.6480u    899.5634m  
    2.67000n    430.6480u    899.5634m  
    2.68000n    430.6480u    899.5634m  
    2.69000n    430.6480u    899.5634m  
    2.70000n    430.6480u    899.5634m  
    2.71000n    430.6480u    899.5634m  
    2.72000n    430.6480u    899.5634m  
    2.73000n    430.6480u    899.5634m  
    2.74000n    430.6480u    899.5634m  
    2.75000n    430.6480u    899.5634m  
    2.76000n    430.6480u    899.5634m  
    2.77000n    430.6480u    899.5634m  
    2.78000n    430.6480u    899.5634m  
    2.79000n    430.6480u    899.5634m  
    2.80000n    430.6480u    899.5634m  
    2.81000n    430.6480u    899.5634m  
    2.82000n    430.6480u    899.5634m  
    2.83000n    430.6480u    899.5634m  
    2.84000n    430.6480u    899.5634m  
    2.85000n    430.6480u    899.5634m  
    2.86000n    430.6480u    899.5634m  
    2.87000n    430.6480u    899.5634m  
    2.88000n    430.6480u    899.5634m  
    2.89000n    430.6480u    899.5634m  
    2.90000n    430.6480u    899.5634m  
    2.91000n    430.6480u    899.5634m  
    2.92000n    430.6480u    899.5634m  
    2.93000n    430.6480u    899.5634m  
    2.94000n    430.6480u    899.5634m  
    2.95000n    430.6480u    899.5634m  
    2.96000n    430.6480u    899.5634m  
    2.97000n    430.6480u    899.5634m  
    2.98000n    430.6480u    899.5634m  
    2.99000n    430.6480u    899.5634m  
    3.00000n    430.6480u    899.5634m  
    3.01000n    430.6480u    899.5634m  
    3.02000n    430.6480u    899.5634m  
    3.03000n    430.6480u    899.5634m  
    3.04000n    430.6480u    899.5634m  
    3.05000n    430.6480u    899.5634m  
    3.06000n     -1.0860m    899.2223m  
    3.07000n     33.6942m    901.2594m  
    3.08000n    204.2105m    744.8995m  
    3.09000n    793.9264m     98.2038m  
    3.10000n    898.3767m    636.8358u  
    3.11000n    899.3405m    535.7676u  
    3.12000n    899.6640m    365.9463u  
    3.13000n    899.5210m    477.9793u  
    3.14000n    899.5591m    429.4679u  
    3.15000n    899.5952m    383.5137u  
    3.16000n    899.5841m    400.8312u  
    3.17000n    899.5730m    418.1487u  
    3.18000n    899.5619m    435.4662u  
    3.19000n    899.5508m    452.7836u  
    3.20000n    899.5397m    470.1011u  
    3.21000n    899.5393m    470.3586u  
    3.22000n    899.5439m    462.5027u  
    3.23000n    899.5485m    454.6468u  
    3.24000n    899.5531m    446.7908u  
    3.25000n    899.5577m    438.9349u  
    3.26000n    899.5623m    431.0790u  
    3.27000n    899.5670m    423.2231u  
    3.28000n    899.5716m    415.3672u  
    3.29000n    899.5762m    407.5113u  
    3.30000n    899.5808m    399.6554u  
    3.31000n    899.5854m    391.7994u  
    3.32000n    899.5873m    388.6879u  
    3.33000n    899.5848m    393.0244u  
    3.34000n    899.5824m    397.3609u  
    3.35000n    899.5800m    401.6974u  
    3.36000n    899.5775m    406.0339u  
    3.37000n    899.5751m    410.3704u  
    3.38000n    899.5727m    414.7069u  
    3.39000n    899.5702m    419.0435u  
    3.40000n    899.5678m    423.3800u  
    3.41000n    899.5654m    427.7165u  
    3.42000n    899.5629m    432.0530u  
    3.43000n    899.5605m    436.3895u  
    3.44000n    899.5581m    440.7260u  
    3.45000n    899.5556m    445.0625u  
    3.46000n    899.5532m    449.3991u  
    3.47000n    899.5507m    453.7356u  
    3.48000n    899.5483m    458.0721u  
    3.49000n    899.5459m    462.4086u  
    3.50000n    899.5434m    466.7451u  
    3.51000n    899.5410m    471.0816u  
    3.52000n    899.5404m    472.0696u  
    3.53000n    899.5427m    467.8008u  
    3.54000n    899.5451m    463.5319u  
    3.55000n    899.5474m    459.2631u  
    3.56000n    899.5497m    454.9943u  
    3.57000n    899.5520m    450.7254u  
    3.58000n    899.5543m    446.4566u  
    3.59000n    899.5567m    442.1878u  
    3.60000n    899.5590m    437.9190u  
    3.61000n    899.5613m    433.6501u  
    3.62000n    899.5636m    429.3813u  
    3.63000n    899.5659m    425.1125u  
    3.64000n    899.5683m    420.8436u  
    3.65000n    899.5706m    416.5748u  
    3.66000n    899.5729m    412.3060u  
    3.67000n    899.5752m    408.0371u  
    3.68000n    899.5776m    403.7683u  
    3.69000n    899.5799m    399.4995u  
    3.70000n    899.5822m    395.2306u  
    3.71000n    899.5845m    390.9618u  
    3.72000n    899.5851m    389.9895u  
    3.73000n    899.5829m    394.1926u  
    3.74000n    899.5807m    398.3956u  
    3.75000n    899.5784m    402.5986u  
    3.76000n    899.5762m    406.8016u  
    3.77000n    899.5740m    411.0046u  
    3.78000n    899.5718m    415.2076u  
    3.79000n    899.5696m    419.4106u  
    3.80000n    899.5674m    423.6136u  
    3.81000n    899.5652m    427.8166u  
    3.82000n    899.5630m    432.0196u  
    3.83000n    899.5608m    436.2226u  
    3.84000n    899.5585m    440.4256u  
    3.85000n    899.5563m    444.6286u  
    3.86000n    899.5541m    448.8316u  
    3.87000n    899.5519m    453.0346u  
    3.88000n    899.5497m    457.2376u  
    3.89000n    899.5475m    461.4406u  
    3.90000n    899.5453m    465.6436u  
    3.91000n    899.5431m    469.8466u  
    3.92000n    899.5436m    468.6138u  
    3.93000n    899.5485m    458.8473u  
    3.94000n    899.5533m    449.0808u  
    3.95000n    899.5582m    439.3143u  
    3.96000n    899.5630m    429.5479u  
    3.97000n    899.5679m    419.7814u  
    3.98000n    899.5727m    410.0149u  
    3.99000n    899.5776m    400.2484u  
    4.00000n    899.5824m    390.4819u  
y
x

        time    voltage      voltage    
                 outin_01     outin_11  
    0.          425.5240u    899.5633m  
   10.00000p     10.8552m    901.1145m  
   20.00000p    116.8615m    885.9819m  
   30.00000p    400.1461m    772.8069m  
   40.00000p    785.4893m    119.2503m  
   50.00000p    885.4683m      2.3420m  
   60.00000p    899.2623m    690.4792u  
   70.00000p    899.5825m    414.1653u  
   80.00000p    899.5602m    437.8702u  
   90.00000p    899.5871m    421.5164u  
  100.00000p    899.5758m    426.4541u  
  110.00000p    899.5645m    431.3918u  
  120.00000p    899.5533m    436.3295u  
  130.00000p    899.5547m    435.9475u  
  140.00000p    899.5586m    434.5595u  
  150.00000p    899.5625m    433.1716u  
  160.00000p    899.5664m    431.7836u  
  170.00000p    899.5702m    430.3956u  
  180.00000p    899.5741m    429.0077u  
  190.00000p    899.5780m    427.6197u  
  200.00000p    899.5819m    426.2317u  
  210.00000p    899.5829m    425.8208u  
  220.00000p    899.5814m    426.3023u  
  230.00000p    899.5799m    426.7837u  
  240.00000p    899.5785m    427.2652u  
  250.00000p    899.5770m    427.7466u  
  260.00000p    899.5755m    428.2281u  
  270.00000p    899.5740m    428.7095u  
  280.00000p    899.5725m    429.1910u  
  290.00000p    899.5710m    429.6725u  
  300.00000p    899.5695m    430.1539u  
  310.00000p    899.5680m    430.6354u  
  320.00000p    899.5665m    431.1168u  
  330.00000p    899.5650m    431.5983u  
  340.00000p    899.5635m    432.0797u  
  350.00000p    899.5620m    432.5612u  
  360.00000p    899.5605m    433.0426u  
  370.00000p    899.5590m    433.5241u  
  380.00000p    899.5575m    434.0055u  
  390.00000p    899.5560m    434.4870u  
  400.00000p    899.5545m    434.9685u  
  410.00000p    899.5546m    434.9736u  
  420.00000p    899.5560m    434.5437u  
  430.00000p    899.5574m    434.1138u  
  440.00000p    899.5589m    433.6839u  
  450.00000p    899.5603m    433.2541u  
  460.00000p    899.5617m    432.8242u  
  470.00000p    899.5632m    432.3943u  
  480.00000p    899.5646m    431.9644u  
  490.00000p    899.5660m    431.5345u  
  500.00000p    899.5674m    431.1047u  
  510.00000p    899.5689m    430.6748u  
  520.00000p    899.5703m    430.2449u  
  530.00000p    899.5717m    429.8150u  
  540.00000p    899.5732m    429.3851u  
  550.00000p    899.5746m    428.9552u  
  560.00000p    899.5760m    428.5254u  
  570.00000p    899.5775m    428.0955u  
  580.00000p    899.5789m    427.6656u  
  590.00000p    899.5803m    427.2357u  
  600.00000p    899.5818m    426.8058u  
  610.00000p    899.5817m    426.7997u  
  620.00000p    899.5804m    427.1805u  
  630.00000p    899.5790m    427.5613u  
  640.00000p    899.5776m    427.9422u  
  650.00000p    899.5762m    428.3230u  
  660.00000p    899.5749m    428.7039u  
  670.00000p    899.5735m    429.0847u  
  680.00000p    899.5721m    429.4655u  
  690.00000p    899.5708m    429.8464u  
  700.00000p    899.5694m    430.2272u  
  710.00000p    899.5680m    430.6081u  
  720.00000p    899.5667m    430.9889u  
  730.00000p    899.5653m    431.3697u  
  740.00000p    899.5639m    431.7506u  
  750.00000p    899.5625m    432.1314u  
  760.00000p    899.5612m    432.5122u  
  770.00000p    899.5598m    432.8931u  
  780.00000p    899.5584m    433.2739u  
  790.00000p    899.5571m    433.6548u  
  800.00000p    899.5557m    434.0356u  
  810.00000p    899.5557m    434.0427u  
  820.00000p    899.5570m    433.7085u  
  830.00000p    899.5583m    433.3743u  
  840.00000p    899.5597m    433.0400u  
  850.00000p    899.5610m    432.7058u  
  860.00000p    899.5623m    432.3716u  
  870.00000p    899.5636m    432.0374u  
  880.00000p    899.5649m    431.7031u  
  890.00000p    899.5662m    431.3689u  
  900.00000p    899.5675m    431.0347u  
  910.00000p    899.5688m    430.7005u  
  920.00000p    899.5702m    430.3662u  
  930.00000p    899.5715m    430.0320u  
  940.00000p    899.5728m    429.6978u  
  950.00000p    899.5741m    429.3636u  
  960.00000p    899.5754m    429.0294u  
  970.00000p    899.5767m    428.6951u  
  980.00000p    899.5780m    428.3609u  
  990.00000p    899.5793m    428.0267u  
    1.00000n    899.5807m    427.6925u  
    1.01000n    899.5786m    428.0498u  
    1.02000n    899.5734m    429.0387u  
    1.03000n    899.5682m    430.0276u  
    1.04000n    899.5630m    431.0165u  
    1.05000n    899.5578m    432.0054u  
    1.06000n    899.5679m    431.3104u  
    1.07000n    899.5686m    430.2902u  
    1.08000n    899.5684m    430.8571u  
    1.09000n    899.5685m    430.6981u  
    1.10000n    899.5684m    430.6476u  
    1.11000n    899.5684m    430.6480u  
    1.12000n    899.5684m    430.6480u  
    1.13000n    899.5684m    430.6480u  
    1.14000n    899.5684m    430.6480u  
    1.15000n    899.5684m    430.6480u  
    1.16000n    899.5684m    430.6480u  
    1.17000n    899.5684m    430.6480u  
    1.18000n    899.5684m    430.6480u  
    1.19000n    899.5684m    430.6480u  
    1.20000n    899.5684m    430.6480u  
    1.21000n    899.5684m    430.6480u  
    1.22000n    899.5684m    430.6480u  
    1.23000n    899.5684m    430.6480u  
    1.24000n    899.5684m    430.6480u  
    1.25000n    899.5684m    430.6480u  
    1.26000n    899.5684m    430.6480u  
    1.27000n    899.5684m    430.6480u  
    1.28000n    899.5684m    430.6480u  
    1.29000n    899.5684m    430.6480u  
    1.30000n    899.5684m    430.6480u  
    1.31000n    899.5684m    430.6480u  
    1.32000n    899.5684m    430.6480u  
    1.33000n    899.5684m    430.6480u  
    1.34000n    899.5684m    430.6480u  
    1.35000n    899.5684m    430.6480u  
    1.36000n    899.5684m    430.6480u  
    1.37000n    899.5684m    430.6480u  
    1.38000n    899.5684m    430.6480u  
    1.39000n    899.5684m    430.6480u  
    1.40000n    899.5684m    430.6480u  
    1.41000n    899.5684m    430.6480u  
    1.42000n    899.5684m    430.6480u  
    1.43000n    899.5684m    430.6480u  
    1.44000n    899.5684m    430.6480u  
    1.45000n    899.5684m    430.6480u  
    1.46000n    899.5684m    430.6480u  
    1.47000n    899.5684m    430.6480u  
    1.48000n    899.5684m    430.6480u  
    1.49000n    899.5684m    430.6480u  
    1.50000n    899.5684m    430.6480u  
    1.51000n    899.5684m    430.6480u  
    1.52000n    899.5684m    430.6480u  
    1.53000n    899.5684m    430.6480u  
    1.54000n    899.5684m    430.6480u  
    1.55000n    899.5684m    430.6480u  
    1.56000n    899.5684m    430.6480u  
    1.57000n    899.5684m    430.6480u  
    1.58000n    899.5684m    430.6480u  
    1.59000n    899.5684m    430.6480u  
    1.60000n    899.5684m    430.6480u  
    1.61000n    899.5684m    430.6480u  
    1.62000n    899.5684m    430.6480u  
    1.63000n    899.5684m    430.6480u  
    1.64000n    899.5684m    430.6480u  
    1.65000n    899.5684m    430.6480u  
    1.66000n    899.5684m    430.6480u  
    1.67000n    899.5684m    430.6480u  
    1.68000n    899.5684m    430.6480u  
    1.69000n    899.5684m    430.6480u  
    1.70000n    899.5684m    430.6480u  
    1.71000n    899.5684m    430.6480u  
    1.72000n    899.5684m    430.6480u  
    1.73000n    899.5684m    430.6480u  
    1.74000n    899.5684m    430.6480u  
    1.75000n    899.5684m    430.6480u  
    1.76000n    899.5684m    430.6480u  
    1.77000n    899.5684m    430.6480u  
    1.78000n    899.5684m    430.6480u  
    1.79000n    899.5684m    430.6480u  
    1.80000n    899.5684m    430.6480u  
    1.81000n    899.5684m    430.6480u  
    1.82000n    899.5684m    430.6480u  
    1.83000n    899.5684m    430.6480u  
    1.84000n    899.5684m    430.6480u  
    1.85000n    899.5684m    430.6480u  
    1.86000n    899.5684m    430.6480u  
    1.87000n    899.5684m    430.6480u  
    1.88000n    899.5684m    430.6480u  
    1.89000n    899.5684m    430.6480u  
    1.90000n    899.5684m    430.6480u  
    1.91000n    899.5684m    430.6480u  
    1.92000n    899.5684m    430.6480u  
    1.93000n    899.5684m    430.6480u  
    1.94000n    899.5684m    430.6480u  
    1.95000n    899.5684m    430.6480u  
    1.96000n    899.5684m    430.6480u  
    1.97000n    899.5684m    430.6480u  
    1.98000n    899.5684m    430.6480u  
    1.99000n    899.5684m    430.6480u  
    2.00000n    899.5684m    430.6480u  
    2.01000n    899.5684m    430.6480u  
    2.02000n    899.5684m    430.6480u  
    2.03000n    899.5684m    430.6480u  
    2.04000n    899.5684m    430.6480u  
    2.05000n    899.5684m    430.6480u  
    2.06000n    892.6412m     -1.5074m  
    2.07000n    801.7460m     -1.0754m  
    2.08000n    456.8769m    189.8702m  
    2.09000n    170.2192m      1.8845   
    2.10000n   -930.2599m      2.4576   
    2.11000n     -5.2639m    909.1591m  
    2.12000n    391.9271u    899.6266m  
    2.13000n    425.2182u    899.5604m  
    2.14000n    425.9682u    899.5655m  
    2.15000n    425.9884u    899.5660m  
    2.16000n    425.5802u    899.5638m  
    2.17000n    425.1719u    899.5616m  
    2.18000n    424.7637u    899.5593m  
    2.19000n    424.8169u    899.5596m  
    2.20000n    424.9562u    899.5603m  
    2.21000n    425.0955u    899.5610m  
    2.22000n    425.2347u    899.5617m  
    2.23000n    425.3740u    899.5624m  
    2.24000n    425.5133u    899.5631m  
    2.25000n    425.6526u    899.5638m  
    2.26000n    425.7919u    899.5645m  
    2.27000n    425.9312u    899.5652m  
    2.28000n    426.0705u    899.5659m  
    2.29000n    426.2098u    899.5667m  
    2.30000n    426.3491u    899.5674m  
    2.31000n    426.3248u    899.5673m  
    2.32000n    426.2379u    899.5668m  
    2.33000n    426.1509u    899.5664m  
    2.34000n    426.0640u    899.5660m  
    2.35000n    425.9770u    899.5655m  
    2.36000n    425.8901u    899.5651m  
    2.37000n    425.8032u    899.5647m  
    2.38000n    425.7162u    899.5642m  
    2.39000n    425.6293u    899.5638m  
    2.40000n    425.5423u    899.5634m  
    2.41000n    425.4554u    899.5629m  
    2.42000n    425.3685u    899.5625m  
    2.43000n    425.2815u    899.5621m  
    2.44000n    425.1946u    899.5616m  
    2.45000n    425.1076u    899.5612m  
    2.46000n    425.0207u    899.5608m  
    2.47000n    424.9338u    899.5603m  
    2.48000n    424.8468u    899.5599m  
    2.49000n    424.7599u    899.5595m  
    2.50000n    424.6729u    899.5590m  
    2.51000n    424.7131u    899.5592m  
    2.52000n    424.8019u    899.5597m  
    2.53000n    424.8907u    899.5601m  
    2.54000n    424.9795u    899.5605m  
    2.55000n    425.0682u    899.5610m  
    2.56000n    425.1570u    899.5614m  
    2.57000n    425.2458u    899.5618m  
    2.58000n    425.3346u    899.5623m  
    2.59000n    425.4234u    899.5627m  
    2.60000n    425.5122u    899.5631m  
    2.61000n    425.6010u    899.5636m  
    2.62000n    425.6898u    899.5640m  
    2.63000n    425.7786u    899.5644m  
    2.64000n    425.8674u    899.5649m  
    2.65000n    425.9562u    899.5653m  
    2.66000n    426.0449u    899.5657m  
    2.67000n    426.1337u    899.5662m  
    2.68000n    426.2225u    899.5666m  
    2.69000n    426.3113u    899.5670m  
    2.70000n    426.4001u    899.5675m  
    2.71000n    426.3592u    899.5673m  
    2.72000n    426.2686u    899.5668m  
    2.73000n    426.1780u    899.5664m  
    2.74000n    426.0874u    899.5660m  
    2.75000n    425.9968u    899.5655m  
    2.76000n    425.9062u    899.5651m  
    2.77000n    425.8156u    899.5647m  
    2.78000n    425.7250u    899.5642m  
    2.79000n    425.6344u    899.5638m  
    2.80000n    425.5438u    899.5634m  
    2.81000n    425.4532u    899.5629m  
    2.82000n    425.3626u    899.5625m  
    2.83000n    425.2720u    899.5621m  
    2.84000n    425.1814u    899.5616m  
    2.85000n    425.0908u    899.5612m  
    2.86000n    425.0002u    899.5608m  
    2.87000n    424.9096u    899.5603m  
    2.88000n    424.8190u    899.5599m  
    2.89000n    424.7284u    899.5595m  
    2.90000n    424.6378u    899.5590m  
    2.91000n    424.7037u    899.5593m  
    2.92000n    424.8296u    899.5599m  
    2.93000n    424.9555u    899.5605m  
    2.94000n    425.0814u    899.5611m  
    2.95000n    425.2073u    899.5617m  
    2.96000n    425.3332u    899.5623m  
    2.97000n    425.4591u    899.5629m  
    2.98000n    425.5849u    899.5635m  
    2.99000n    425.7108u    899.5641m  
    3.00000n    425.8367u    899.5647m  
    3.01000n    425.9626u    899.5652m  
    3.02000n    426.0885u    899.5658m  
    3.03000n    426.2144u    899.5664m  
    3.04000n    426.3403u    899.5670m  
    3.05000n    426.4661u    899.5676m  
    3.06000n    425.5110u    899.5632m  
    3.07000n    425.5309u    899.5633m  
    3.08000n    425.5170u    899.5633m  
    3.09000n    425.5388u    899.5633m  
    3.10000n    425.5235u    899.5633m  
    3.11000n    425.5240u    899.5633m  
    3.12000n    425.5240u    899.5633m  
    3.13000n    425.5240u    899.5633m  
    3.14000n    425.5240u    899.5633m  
    3.15000n    425.5240u    899.5633m  
    3.16000n    425.5240u    899.5633m  
    3.17000n    425.5240u    899.5633m  
    3.18000n    425.5240u    899.5633m  
    3.19000n    425.5240u    899.5633m  
    3.20000n    425.5240u    899.5633m  
    3.21000n    425.5240u    899.5633m  
    3.22000n    425.5240u    899.5633m  
    3.23000n    425.5240u    899.5633m  
    3.24000n    425.5240u    899.5633m  
    3.25000n    425.5240u    899.5633m  
    3.26000n    425.5240u    899.5633m  
    3.27000n    425.5240u    899.5633m  
[...]
    3.81000n    425.5240u    899.5633m  
    3.82000n    425.5240u    899.5633m  
    3.83000n    425.5240u    899.5633m  
    3.84000n    425.5240u    899.5633m  
    3.85000n    425.5240u    899.5633m  
    3.86000n    425.5240u    899.5633m  
    3.87000n    425.5240u    899.5633m  
    3.88000n    425.5240u    899.5633m  
    3.89000n    425.5240u    899.5633m  
    3.90000n    425.5240u    899.5633m  
    3.91000n    425.5240u    899.5633m  
    3.92000n    425.5240u    899.5633m  
    3.93000n    425.5240u    899.5633m  
    3.94000n    425.5240u    899.5633m  
    3.95000n    425.5240u    899.5633m  
    3.96000n    425.5240u    899.5633m  
    3.97000n    425.5240u    899.5633m  
    3.98000n    425.5240u    899.5633m  
    3.99000n    425.5240u    899.5633m  
    4.00000n    425.5240u    899.5633m  
y
x

        time    voltage      voltage    
                 outin_11     outin_21  
    0.          899.5633m    430.7087u  
   10.00000p    901.1145m    631.5797u  
   20.00000p    885.9819m   -259.4561u  
   30.00000p    772.8069m     50.6838m  
   40.00000p    119.2503m    835.2463m  
   50.00000p      2.3420m    898.8071m  
   60.00000p    690.4792u    899.4616m  
   70.00000p    414.1653u    899.5596m  
   80.00000p    437.8702u    899.5610m  
   90.00000p    421.5164u    899.5855m  
  100.00000p    426.4541u    899.5709m  
  110.00000p    431.3918u    899.5562m  
  120.00000p    436.3295u    899.5415m  
  130.00000p    435.9475u    899.5440m  
  140.00000p    434.5595u    899.5497m  
  150.00000p    433.1716u    899.5555m  
  160.00000p    431.7836u    899.5612m  
  170.00000p    430.3956u    899.5669m  
  180.00000p    429.0077u    899.5726m  
  190.00000p    427.6197u    899.5784m  
  200.00000p    426.2317u    899.5841m  
  210.00000p    425.8208u    899.5856m  
  220.00000p    426.3023u    899.5833m  
  230.00000p    426.7837u    899.5810m  
  240.00000p    427.2652u    899.5786m  
  250.00000p    427.7466u    899.5763m  
  260.00000p    428.2281u    899.5740m  
  270.00000p    428.7095u    899.5717m  
  280.00000p    429.1910u    899.5693m  
  290.00000p    429.6725u    899.5670m  
  300.00000p    430.1539u    899.5647m  
  310.00000p    430.6354u    899.5624m  
  320.00000p    431.1168u    899.5600m  
  330.00000p    431.5983u    899.5577m  
  340.00000p    432.0797u    899.5554m  
  350.00000p    432.5612u    899.5531m  
  360.00000p    433.0426u    899.5507m  
  370.00000p    433.5241u    899.5484m  
  380.00000p    434.0055u    899.5461m  
  390.00000p    434.4870u    899.5438m  
  400.00000p    434.9685u    899.5415m  
  410.00000p    434.9736u    899.5415m  
  420.00000p    434.5437u    899.5438m  
  430.00000p    434.1138u    899.5461m  
  440.00000p    433.6839u    899.5484m  
  450.00000p    433.2541u    899.5507m  
  460.00000p    432.8242u    899.5530m  
  470.00000p    432.3943u    899.5553m  
  480.00000p    431.9644u    899.5576m  
  490.00000p    431.5345u    899.5599m  
  500.00000p    431.1047u    899.5622m  
  510.00000p    430.6748u    899.5645m  
  520.00000p    430.2449u    899.5667m  
  530.00000p    429.8150u    899.5690m  
  540.00000p    429.3851u    899.5713m  
  550.00000p    428.9552u    899.5736m  
  560.00000p    428.5254u    899.5759m  
  570.00000p    428.0955u    899.5782m  
  580.00000p    427.6656u    899.5805m  
  590.00000p    427.2357u    899.5828m  
  600.00000p    426.8058u    899.5851m  
  610.00000p    426.7997u    899.5850m  
  620.00000p    427.1805u    899.5827m  
  630.00000p    427.5613u    899.5805m  
  640.00000p    427.9422u    899.5782m  
  650.00000p    428.3230u    899.5760m  
  660.00000p    428.7039u    899.5737m  
  670.00000p    429.0847u    899.5714m  
  680.00000p    429.4655u    899.5692m  
  690.00000p    429.8464u    899.5669m  
  700.00000p    430.2272u    899.5646m  
  710.00000p    430.6081u    899.5624m  
  720.00000p    430.9889u    899.5601m  
  730.00000p    431.3697u    899.5579m  
  740.00000p    431.7506u    899.5556m  
  750.00000p    432.1314u    899.5533m  
  760.00000p    432.5122u    899.5511m  
  770.00000p    432.8931u    899.5488m  
  780.00000p    433.2739u    899.5466m  
  790.00000p    433.6548u    899.5443m  
  800.00000p    434.0356u    899.5420m  
  810.00000p    434.0427u    899.5421m  
  820.00000p    433.7085u    899.5444m  
  830.00000p    433.3743u    899.5466m  
  840.00000p    433.0400u    899.5488m  
  850.00000p    432.7058u    899.5510m  
  860.00000p    432.3716u    899.5533m  
  870.00000p    432.0374u    899.5555m  
  880.00000p    431.7031u    899.5577m  
  890.00000p    431.3689u    899.5600m  
  900.00000p    431.0347u    899.5622m  
  910.00000p    430.7005u    899.5644m  
  920.00000p    430.3662u    899.5667m  
  930.00000p    430.0320u    899.5689m  
  940.00000p    429.6978u    899.5711m  
  950.00000p    429.3636u    899.5734m  
  960.00000p    429.0294u    899.5756m  
  970.00000p    428.6951u    899.5778m  
  980.00000p    428.3609u    899.5801m  
  990.00000p    428.0267u    899.5823m  
    1.00000n    427.6925u    899.5845m  
    1.01000n    428.0498u    899.5806m  
    1.02000n    429.0387u    899.5711m  
    1.03000n    430.0276u    899.5615m  
    1.04000n    431.0165u    899.5520m  
    1.05000n    432.0054u    899.5424m  
    1.06000n    431.3104u    899.5637m  
    1.07000n    430.2902u    899.5631m  
    1.08000n    430.8571u    899.5637m  
    1.09000n    430.6981u    899.5635m  
    1.10000n    430.6476u    899.5634m  
    1.11000n    430.6480u    899.5634m  
    1.12000n    430.6480u    899.5634m  
    1.13000n    430.6480u    899.5634m  
    1.14000n    430.6480u    899.5634m  
    1.15000n    430.6480u    899.5634m  
    1.16000n    430.6480u    899.5634m  
    1.17000n    430.6480u    899.5634m  
    1.18000n    430.6480u    899.5634m  
    1.19000n    430.6480u    899.5634m  
    1.20000n    430.6480u    899.5634m  
    1.21000n    430.6480u    899.5634m  
    1.22000n    430.6480u    899.5634m  
    1.23000n    430.6480u    899.5634m  
    1.24000n    430.6480u    899.5634m  
    1.25000n    430.6480u    899.5634m  
    1.26000n    430.6480u    899.5634m  
    1.27000n    430.6480u    899.5634m  
    1.28000n    430.6480u    899.5634m  
    1.29000n    430.6480u    899.5634m  
    1.30000n    430.6480u    899.5634m  
    1.31000n    430.6480u    899.5634m  
    1.32000n    430.6480u    899.5634m  
    1.33000n    430.6480u    899.5634m  
    1.34000n    430.6480u    899.5634m  
    1.35000n    430.6480u    899.5634m  
    1.36000n    430.6480u    899.5634m  
    1.37000n    430.6480u    899.5634m  
    1.38000n    430.6480u    899.5634m  
    1.39000n    430.6480u    899.5634m  
    1.40000n    430.6480u    899.5634m  
    1.41000n    430.6480u    899.5634m  
    1.42000n    430.6480u    899.5634m  
    1.43000n    430.6480u    899.5634m  
    1.44000n    430.6480u    899.5634m  
    1.45000n    430.6480u    899.5634m  
    1.46000n    430.6480u    899.5634m  
    1.47000n    430.6480u    899.5634m  
    1.48000n    430.6480u    899.5634m  
    1.49000n    430.6480u    899.5634m  
    1.50000n    430.6480u    899.5634m  
    1.51000n    430.6480u    899.5634m  
    1.52000n    430.6480u    899.5634m  
    1.53000n    430.6480u    899.5634m  
    1.54000n    430.6480u    899.5634m  
    1.55000n    430.6480u    899.5634m  
    1.56000n    430.6480u    899.5634m  
    1.57000n    430.6480u    899.5634m  
    1.58000n    430.6480u    899.5634m  
    1.59000n    430.6480u    899.5634m  
    1.60000n    430.6480u    899.5634m  
    1.61000n    430.6480u    899.5634m  
    1.62000n    430.6480u    899.5634m  
    1.63000n    430.6480u    899.5634m  
    1.64000n    430.6480u    899.5634m  
    1.65000n    430.6480u    899.5634m  
    1.66000n    430.6480u    899.5634m  
    1.67000n    430.6480u    899.5634m  
    1.68000n    430.6480u    899.5634m  
    1.69000n    430.6480u    899.5634m  
    1.70000n    430.6480u    899.5634m  
    1.71000n    430.6480u    899.5634m  
    1.72000n    430.6480u    899.5634m  
    1.73000n    430.6480u    899.5634m  
    1.74000n    430.6480u    899.5634m  
    1.75000n    430.6480u    899.5634m  
    1.76000n    430.6480u    899.5634m  
    1.77000n    430.6480u    899.5634m  
    1.78000n    430.6480u    899.5634m  
    1.79000n    430.6480u    899.5634m  
    1.80000n    430.6480u    899.5634m  
    1.81000n    430.6480u    899.5634m  
    1.82000n    430.6480u    899.5634m  
    1.83000n    430.6480u    899.5634m  
    1.84000n    430.6480u    899.5634m  
    1.85000n    430.6480u    899.5634m  
    1.86000n    430.6480u    899.5634m  
    1.87000n    430.6480u    899.5634m  
    1.88000n    430.6480u    899.5634m  
    1.89000n    430.6480u    899.5634m  
    1.90000n    430.6480u    899.5634m  
    1.91000n    430.6480u    899.5634m  
    1.92000n    430.6480u    899.5634m  
    1.93000n    430.6480u    899.5634m  
    1.94000n    430.6480u    899.5634m  
    1.95000n    430.6480u    899.5634m  
    1.96000n    430.6480u    899.5634m  
    1.97000n    430.6480u    899.5634m  
    1.98000n    430.6480u    899.5634m  
    1.99000n    430.6480u    899.5634m  
    2.00000n    430.6480u    899.5634m  
    2.01000n    430.6480u    899.5634m  
    2.02000n    430.6480u    899.5634m  
    2.03000n    430.6480u    899.5634m  
    2.04000n    430.6480u    899.5634m  
    2.05000n    430.6480u    899.5634m  
    2.06000n     -1.5074m    899.3081m  
    2.07000n     -1.0754m    899.9597m  
    2.08000n    189.8702m    879.8566m  
    2.09000n      1.8845     291.7862m  
    2.10000n      2.4576    -103.9237m  
    2.11000n    909.1591m     -2.2713m  
    2.12000n    899.6266m    423.8753u  
    2.13000n    899.5604m    419.2386u  
    2.14000n    899.5655m    437.0481u  
    2.15000n    899.5660m    439.4012u  
    2.16000n    899.5638m    432.6794u  
    2.17000n    899.5616m    425.9576u  
    2.18000n    899.5593m    419.2358u  
    2.19000n    899.5596m    419.9174u  
    2.20000n    899.5603m    421.9808u  
    2.21000n    899.5610m    424.0443u  
    2.22000n    899.5617m    426.1078u  
    2.23000n    899.5624m    428.1712u  
    2.24000n    899.5631m    430.2347u  
    2.25000n    899.5638m    432.2982u  
    2.26000n    899.5645m    434.3617u  
    2.27000n    899.5652m    436.4251u  
    2.28000n    899.5659m    438.4886u  
    2.29000n    899.5667m    440.5521u  
    2.30000n    899.5674m    442.6155u  
    2.31000n    899.5673m    442.2886u  
    2.32000n    899.5668m    441.0466u  
    2.33000n    899.5664m    439.8045u  
    2.34000n    899.5660m    438.5624u  
    2.35000n    899.5655m    437.3204u  
    2.36000n    899.5651m    436.0783u  
    2.37000n    899.5647m    434.8363u  
    2.38000n    899.5642m    433.5942u  
    2.39000n    899.5638m    432.3521u  
    2.40000n    899.5634m    431.1101u  
    2.41000n    899.5629m    429.8680u  
    2.42000n    899.5625m    428.6260u  
    2.43000n    899.5621m    427.3839u  
    2.44000n    899.5616m    426.1418u  
    2.45000n    899.5612m    424.8998u  
    2.46000n    899.5608m    423.6577u  
    2.47000n    899.5603m    422.4157u  
    2.48000n    899.5599m    421.1736u  
    2.49000n    899.5595m    419.9315u  
    2.50000n    899.5590m    418.6895u  
    2.51000n    899.5592m    419.2394u  
    2.52000n    899.5597m    420.4753u  
    2.53000n    899.5601m    421.7112u  
    2.54000n    899.5605m    422.9471u  
    2.55000n    899.5610m    424.1830u  
    2.56000n    899.5614m    425.4190u  
    2.57000n    899.5618m    426.6549u  
    2.58000n    899.5623m    427.8908u  
    2.59000n    899.5627m    429.1267u  
    2.60000n    899.5631m    430.3626u  
    2.61000n    899.5636m    431.5986u  
    2.62000n    899.5640m    432.8345u  
    2.63000n    899.5644m    434.0704u  
    2.64000n    899.5649m    435.3063u  
    2.65000n    899.5653m    436.5422u  
    2.66000n    899.5657m    437.7782u  
    2.67000n    899.5662m    439.0141u  
    2.68000n    899.5666m    440.2500u  
    2.69000n    899.5670m    441.4859u  
    2.70000n    899.5675m    442.7218u  
    2.71000n    899.5673m    442.1747u  
    2.72000n    899.5668m    440.9448u  
    2.73000n    899.5664m    439.7150u  
    2.74000n    899.5660m    438.4851u  
    2.75000n    899.5655m    437.2553u  
    2.76000n    899.5651m    436.0254u  
    2.77000n    899.5647m    434.7956u  
    2.78000n    899.5642m    433.5658u  
    2.79000n    899.5638m    432.3359u  
    2.80000n    899.5634m    431.1061u  
    2.81000n    899.5629m    429.8762u  
    2.82000n    899.5625m    428.6464u  
    2.83000n    899.5621m    427.4165u  
    2.84000n    899.5616m    426.1867u  
    2.85000n    899.5612m    424.9569u  
    2.86000n    899.5608m    423.7270u  
    2.87000n    899.5603m    422.4972u  
    2.88000n    899.5599m    421.2673u  
    2.89000n    899.5595m    420.0375u  
    2.90000n    899.5590m    418.8077u  
    2.91000n    899.5593m    419.6683u  
    2.92000n    899.5599m    421.3293u  
    2.93000n    899.5605m    422.9904u  
    2.94000n    899.5611m    424.6514u  
    2.95000n    899.5617m    426.3124u  
    2.96000n    899.5623m    427.9734u  
    2.97000n    899.5629m    429.6344u  
    2.98000n    899.5635m    431.2955u  
    2.99000n    899.5641m    432.9565u  
    3.00000n    899.5647m    434.6175u  
    3.01000n    899.5652m    436.2785u  
    3.02000n    899.5658m    437.9395u  
    3.03000n    899.5664m    439.6006u  
    3.04000n    899.5670m    441.2616u  
    3.05000n    899.5676m    442.9226u  
    3.06000n    899.5632m    430.5828u  
    3.07000n    899.5633m    430.7295u  
    3.08000n    899.5633m    430.8636u  
    3.09000n    899.5633m    430.7906u  
    3.10000n    899.5633m    430.7056u  
    3.11000n    899.5633m    430.7087u  
    3.12000n    899.5633m    430.7088u  
    3.13000n    899.5633m    430.7087u  
    3.14000n    899.5633m    430.7087u  
    3.15000n    899.5633m    430.7088u  
    3.16000n    899.5633m    430.7088u  
    3.17000n    899.5633m    430.7087u  
    3.18000n    899.5633m    430.7087u  
    3.19000n    899.5633m    430.7087u  
    3.20000n    899.5633m    430.7087u  
    3.21000n    899.5633m    430.7087u  
    3.22000n    899.5633m    430.7087u  
    3.23000n    899.5633m    430.7087u  
    3.24000n    899.5633m    430.7087u  
    3.25000n    899.5633m    430.7087u  
    3.26000n    899.5633m    430.7087u  
    3.27000n    899.5633m    430.7087u  
    3.28000n    899.5633m    430.7087u  
    3.29000n    899.5633m    430.7088u  
    3.30000n    899.5633m    430.7088u  
    3.31000n    899.5633m    430.7088u  
    3.32000n    899.5633m    430.7088u  
    3.33000n    899.5633m    430.7088u  
    3.34000n    899.5633m    430.7088u  
    3.35000n    899.5633m    430.7088u  
    3.36000n    899.5633m    430.7088u  
    3.37000n    899.5633m    430.7087u  
    3.38000n    899.5633m    430.7087u  
    3.39000n    899.5633m    430.7087u  
    3.40000n    899.5633m    430.7087u  
    3.41000n    899.5633m    430.7087u  
    3.42000n    899.5633m    430.7087u  
    3.43000n    899.5633m    430.7087u  
    3.44000n    899.5633m    430.7087u  
    3.45000n    899.5633m    430.7087u  
    3.46000n    899.5633m    430.7087u  
    3.47000n    899.5633m    430.7087u  
    3.48000n    899.5633m    430.7087u  
    3.49000n    899.5633m    430.7087u  
    3.50000n    899.5633m    430.7087u  
    3.51000n    899.5633m    430.7087u  
    3.52000n    899.5633m    430.7087u  
    3.53000n    899.5633m    430.7087u  
    3.54000n    899.5633m    430.7087u  
    3.55000n    899.5633m    430.7087u  
    3.56000n    899.5633m    430.7087u  
    3.57000n    899.5633m    430.7087u  
    3.58000n    899.5633m    430.7087u  
    3.59000n    899.5633m    430.7087u  
    3.60000n    899.5633m    430.7087u  
    3.61000n    899.5633m    430.7087u  
    3.62000n    899.5633m    430.7087u  
    3.63000n    899.5633m    430.7087u  
    3.64000n    899.5633m    430.7087u  
    3.65000n    899.5633m    430.7087u  
    3.66000n    899.5633m    430.7087u  
    3.67000n    899.5633m    430.7088u  
    3.68000n    899.5633m    430.7088u  
    3.69000n    899.5633m    430.7088u  
    3.70000n    899.5633m    430.7088u  
    3.71000n    899.5633m    430.7088u  
    3.72000n    899.5633m    430.7088u  
    3.73000n    899.5633m    430.7088u  
    3.74000n    899.5633m    430.7088u  
    3.75000n    899.5633m    430.7088u  
    3.76000n    899.5633m    430.7088u  
    3.77000n    899.5633m    430.7087u  
    3.78000n    899.5633m    430.7087u  
    3.79000n    899.5633m    430.7087u  
    3.80000n    899.5633m    430.7087u  
    3.81000n    899.5633m    430.7087u  
    3.82000n    899.5633m    430.7087u  
    3.83000n    899.5633m    430.7087u  
    3.84000n    899.5633m    430.7087u  
    3.85000n    899.5633m    430.7087u  
    3.86000n    899.5633m    430.7087u  
    3.87000n    899.5633m    430.7087u  
    3.88000n    899.5633m    430.7087u  
    3.89000n    899.5633m    430.7087u  
    3.90000n    899.5633m    430.7087u  
    3.91000n    899.5633m    430.7087u  
    3.92000n    899.5633m    430.7087u  
    3.93000n    899.5633m    430.7087u  
    3.94000n    899.5633m    430.7087u  
    3.95000n    899.5633m    430.7087u  
    3.96000n    899.5633m    430.7087u  
    3.97000n    899.5633m    430.7087u  
    3.98000n    899.5633m    430.7087u  
    3.99000n    899.5633m    430.7088u  
    4.00000n    899.5633m    430.7088u  
y
 inv_avg_power00=   1.6116u  from=   0.          to=   4.0000n
 peakpower00= 890.7147u    at=   2.0409n
             from=   0.         to=   4.0000n
 inv_avg_power10= 282.1394n  from=   0.          to=   4.0000n
 peakpower10= 101.4387u    at=   2.0409n
             from=   0.         to=   4.0000n
 inv_avg_power01=   1.7456u  from=   0.          to=   4.0000n
 peakpower01= 691.4983u    at=   2.0915n
             from=   0.         to=   4.0000n
 inv_avg_power11= 183.2014n  from=   0.          to=   4.0000n
 peakpower11=  72.5474u    at=   2.1026n
             from=   0.         to=   4.0000n
 source_power=   5.3895u  from=   0.          to=   4.0000n

          ***** job concluded
1****** HSPICE -- F-2011.09-SP2 64-BIT (Feb 27 2012) linux ******               
 ******  
 $this uut was automatically generated by:

  ******  job statistics summary tnom=  25.000 temp=  25.000 *****
  
  
 ******  Machine Information  ******
 CPU:
 model name	: Intel(R) Xeon(R) CPU E5-2650 v4 @ 2.20GHz
 cpu MHz	: 2806.632
  
 OS:
 Linux version 3.10.0-693.17.1.el7.x86_64 (mockbuild@x86-041.build.eng.bos.redha
 t.com) (gcc version 4.8.5 20150623 (Red Hat 4.8.5-16) (GCC) ) #1 SMP Sun Jan 14
  10:36:03 EST 2018


  ******  HSPICE Threads Information  ******

  Command Line Threads Count :     1
  Available CPU Count        :    24
  Actual Threads Count       :     1


  ******  Circuit Statistics  ******
  # nodes       =      46 # elements   =      19
  # resistors   =       0 # capacitors =       0 # inductors   =       0
  # mutual_inds =       0 # vccs       =       0 # vcvs        =       0
  # cccs        =       0 # ccvs       =       0 # volt_srcs   =       3
  # curr_srcs   =       0 # diodes     =       0 # bjts        =       0
  # jfets       =       0 # mosfets    =      16 # U elements  =       0
  # T elements  =       0 # W elements =       0 # B elements  =       0
  # S elements  =       0 # P elements =       0 # va device   =       0
  # vector_srcs =       0


  ******  Runtime Statistics (seconds)  ******

  analysis           time    # points   tot. iter  conv.iter
  op point           0.02           1         113
  transient          0.07         401         997         140 rev=         9
  readin             0.01
  errchk             0.00
  setup              0.00
  output             0.01


           peak memory used        135.46 megabytes
           total cpu time            0.11 seconds
           total elapsed time        0.37 seconds
           job started at     12:00:52 09/12/2020
           job ended   at     12:00:53 09/12/2020


 lic: Release hspice token(s) 
