***** HSPICE -- F-2011.09-SP2 64-BIT (Feb 27 2012) linux ******
 Input File: ptm20hp.sp
 lic:
 lic: FLEXlm: v10.8
 lic: USER:   iliabautista         HOSTNAME: itn0.rc.usf.edu
 lic: HOSTID:                      PID:      99716
 lic: Using FLEXlm license file:
 lic: 27000@license0.rc.usf.edu
 lic: Checkout 1 hspice
 lic: License/Maintenance for hspice will expire on 18-jul-2021/2019.06
 lic: 1(in_use)/50(total) FLOATING license(s) on SERVER license0.rc.usf.edu
 lic:
 init: begin read circuit files,  cpu clock=  2.00E-02
       option post     =     2.00
 init: end read circuit files,  cpu clock=  3.00E-02 memory=       162 kb
 init: begin check errors,  cpu clock=  3.00E-02
 init: end check errors,  cpu clock=  6.00E-02 memory=       296 kb
 init: begin setup matrix, pivot=     0 cpu clock=  6.00E-02
       establish matrix -- done,  cpu clock=  6.00E-02 memory=       338 kb
       re-order matrix -- done,  cpu clock=  6.00E-02 memory=       330 kb
 init: end setup matrix,  cpu clock=  6.00E-02 memory=       408 kb
 dcop: begin dcop,  cpu clock=  6.00E-02
 dcop: end dcop,  cpu clock=  6.00E-02 memory=       408 kb  tot_iter=       5
 output: ptm20hp.mt0
 sweep: tran tran0    begin, stop_t=  8.00E-09 #sweeps= 801 cpu clock=  6.00E-02
 tran: time= 1.0056E-09 tot_iter=     153 conv_iter=      25 cpu clock= 9.00E-02
 tran: time= 1.6502E-09 tot_iter=     312 conv_iter=      52 cpu clock= 1.00E-01
 tran: time= 2.6301E-09 tot_iter=     684 conv_iter=     103 cpu clock= 1.40E-01
 tran: time= 3.2255E-09 tot_iter=     782 conv_iter=     126 cpu clock= 1.50E-01
 tran: time= 4.0000E-09 tot_iter=     790 conv_iter=     130 cpu clock= 1.50E-01
 tran: time= 5.0500E-09 tot_iter=    1025 conv_iter=     171 cpu clock= 1.80E-01
 tran: time= 5.6890E-09 tot_iter=    1130 conv_iter=     195 cpu clock= 1.80E-01
 tran: time= 6.6592E-09 tot_iter=    1305 conv_iter=     230 cpu clock= 2.00E-01
 tran: time= 7.3378E-09 tot_iter=    1400 conv_iter=     255 cpu clock= 2.10E-01
 tran: time= 8.0000E-09 tot_iter=    1404 conv_iter=     257 cpu clock= 2.10E-01
 sweep: tran tran0    end,  cpu clock=  2.10E-01 memory=       409 kb
>info:         ***** hspice job concluded
 lic: Release hspice token(s)
