 ****** HSPICE -- F-2011.09-SP2 64-BIT (Feb 27 2012) linux ******               
  Copyright (C) 2011 Synopsys, Inc. All Rights Reserved.                        
  Unpublished-rights reserved under US copyright laws.
  This program is protected by law and is subject to the
  terms and conditions of the license agreement from Synopsys.
  Use of this program is your acceptance to be bound by the
  license agreement. HSPICE is the trademark of Synopsys, Inc.
  Input File: ptm20hp.sp                                                        
  Command line options: ptm20hp.sp
 lic:  
 lic: FLEXlm: v10.8 
 lic: USER:   iliabautista         HOSTNAME: itn2.rc.usf.edu 
 lic: HOSTID:                      PID:      17636 
 lic: Using FLEXlm license file: 
 lic: 27000@license0.rc.usf.edu 
 lic: Checkout 1 hspice 
 lic: License/Maintenance for hspice will expire on 18-jul-2021/2019.06 
 lic: 1(in_use)/50(total) FLOATING license(s) on SERVER license0.rc.usf.edu 
 lic:   
  **warning** (../modelfiles/hp/20nfet.pm:4) Model nfet device geometries will not be checked against the limits set by lmin, lmax, nfinmin and nfinmax. To enable this check, add a period(.) to the model name(i.e. enable model selector).
1****** HSPICE -- F-2011.09-SP2 64-BIT (Feb 27 2012) linux ******               
 ******  
 $this uut was automatically generated by:

  ******  circuit name directory
 circuit number to circuit name directory
   number circuitname                     definition         multiplier
        0 main circuit
        1 xinput_0.                       inverter           1.00 
        2 xinput_1.                       inverter           1.00 
        3 xinput_2.                       inverter           1.00 
        4 xinverter00.                    inverter           1.00 
        5 xinverter10.                    inverter           1.00 
        6 xinverter20.                    inverter           1.00 
        7 xinverter01.                    inverter           1.00 
        8 xinverter11.                    inverter           1.00 
        9 xinverter21.                    inverter           1.00 
       10 xinverter02.                    inverter           1.00 
       11 xinverter12.                    inverter           1.00 
       12 xinverter22.                    inverter           1.00 
       13 xoutput_00.                     inverter           1.00 
       14 xoutput_10.                     inverter           1.00 
       15 xoutput_20.                     inverter           1.00 
       16 xinput_0.xpfet.                 pfet               1.00 
       17 xinput_0.xnfet.                 nfet               1.00 
       18 xinput_1.xpfet.                 pfet               1.00 
       19 xinput_1.xnfet.                 nfet               1.00 
       20 xinput_2.xpfet.                 pfet               1.00 
       21 xinput_2.xnfet.                 nfet               1.00 
       22 xinverter00.xpfet.              pfet               1.00 
       23 xinverter00.xnfet.              nfet               1.00 
       24 xinverter10.xpfet.              pfet               1.00 
       25 xinverter10.xnfet.              nfet               1.00 
       26 xinverter20.xpfet.              pfet               1.00 
       27 xinverter20.xnfet.              nfet               1.00 
       28 xinverter01.xpfet.              pfet               1.00 
       29 xinverter01.xnfet.              nfet               1.00 
       30 xinverter11.xpfet.              pfet               1.00 
       31 xinverter11.xnfet.              nfet               1.00 
       32 xinverter21.xpfet.              pfet               1.00 
       33 xinverter21.xnfet.              nfet               1.00 
       34 xinverter02.xpfet.              pfet               1.00 
       35 xinverter02.xnfet.              nfet               1.00 
       36 xinverter12.xpfet.              pfet               1.00 
       37 xinverter12.xnfet.              nfet               1.00 
       38 xinverter22.xpfet.              pfet               1.00 
       39 xinverter22.xnfet.              nfet               1.00 
       40 xoutput_00.xpfet.               pfet               1.00 
       41 xoutput_00.xnfet.               nfet               1.00 
       42 xoutput_10.xpfet.               pfet               1.00 
       43 xoutput_10.xnfet.               nfet               1.00 
       44 xoutput_20.xpfet.               pfet               1.00 
       45 xoutput_20.xnfet.               nfet               1.00 
1****** HSPICE -- F-2011.09-SP2 64-BIT (Feb 27 2012) linux ******               
 ******  
 $this uut was automatically generated by:

  ******  mos   model parameters tnom=  25.000 temp=  25.000 *****
 Model Name: pfet 
 BSIM-MG BULK Model(Level72)
   VERSION = 105.03  
   DEVTYPE = -1 
   BULKMOD = 1  
   COREMOD = 0 
   GEOMOD = 1 
   RDSMOD = 1 
   IGCMOD = 1 
   IGBMOD = 1 
   GIDLMOD = 0 
   IIMOD = 0 
   NQSMOD = 0 
   SHMOD = 0 
   RGATEMOD = 0 
   RGEOMOD = 1 
   CGEOMOD = 2 
   CAPMOD = 0 
   LINT =  1e-09 m
   LL =      0 m^(LLN+1)
   LLN =      1 
   DLC =      0 m
   DLBIN =      0 
   LLC =      0 m^(LLN+1)
   EOT = 8.4e-10 m
   TOXP = 1.4e-09 m
   EOTBOX = 1.4e-07 m
   HFIN = 2.8e-08 m
   FECH =      1 
   DELTAW =      0 m
   FECHCV =      1 
   DELTAWCV =      0 m
   NBODY =  5e+23 m^-3
   NSD =  3e+26 m^-3
   PHIG =  4.798 eV
   EPSROX =    3.9 
   EPSRSUB =   11.9 
   EASUB =   4.05 eV
   NI0SUB = 1.1e+16 m^-3
   BG0SUB =   1.12 eV
   NC0SUB = 2.86e+25 m^-3
   NGATE =      0 m^-3
   CIT = 1.3e-05 F/m^2
   CDSC = 0.0132 F/m^2
   CDSCD =  0.007 F/m^2
   CDSCDR =  0.007 
   DVT0 =   0.01 
   DVT1 =   0.69 
   PHIN =   0.05 V
   ETA0 =   0.71 
   ETA0R =   0.71 
   DSUB =    0.9 
   K1RSCE =      0 V^1/2
   LPE0 =  5e-09 m
   DVTSHIFT =      0 
   QMFACTOR =      0 
   QMTCENIV =      0 
   QMTCENCV =      0 
   AQMTCEN =      0 
   BQMTCEN = 1.2e-08 
   ETAQM =   0.54 
   QM0 = 0.001143 
   PQM =   0.66 
   QM0ACC =  0.001 
   PQMACC =   0.66 
   VSAT = 8.4e+04 
   AVSAT =      0 
   BVSAT =  1e-07 
   VSAT1 = 8.4e+04 
   AVSAT1 =      0 
   BVSAT1 =  1e-07 
   DELTAVSAT =      1 
   KSATIV =    0.8 
   MEXP =      3 
   AMEXP =      0 
   BMEXP =      1 
   PTWG =      0 
   APTWG =      0 
   BPTWG =  1e-07 
   AT = -0.00156 
   TMEXP =      0 
   PTWGT =  0.004 
   U0 =  0.026 
   ETAMOB =      2 
   UP =      0 
   LPA =      1 
   UA =    0.3 
   AUA =      0 
   BUA =  1e-07 
   EU =    1.8 
   AEU =      0 
   BEU =  1e-07 
   UD =      0 
   AUD =      0 
   BUD =  5e-08 
   UCS =      0 
   UTE =      0 
   UTL = -0.0015 
   UA1 = 0.001032 
   UD1 =      0 
   UCSTE = -0.00478 
   RDSWMIN =      0 
   RDSW =    100 
   ARDSW =      0 
   BRDSW =  1e-07 
   RSWMIN =      0 
   RSW =      0 
   ARSW =      0 
   BRSW =  1e-07 
   RDWMIN =      0 
   RDW =      0 
   ARDW =      0 
   BRDW =  1e-07 
   PRWG =      0 
   WR =      1 
   PRT =  0.001 
   PDIBL1 =    1.3 
   PDIBL2 = 0.0002 
   DROUT =   1.06 
   PVAG =      1 
   PCLM =    0.2 
   APCLM =      0 
   BPCLM =  1e-07 
   PCLMG =      0 
   VASAT =    0.6 
   PCLMCV =  0.013 
   PCLMGCV =      0 
   VASATCV =    0.2 
   RGEXT =      0 ohm
   RGFIN =  0.001 ohm
   RSHS =      0 ohm
   RSHD =      0 ohm
   HEPI =  1e-08 m
   TSILI =  1e-08 m
   RHOC =  5e-12 ohm/m^2
   RHORSD =      1 ohm/m
   RHOEXT =      1 ohm/m
   CRATIO =    0.5 
   DELTAPRSD =      0 m
   SDTERM = 0 
   LSP = 4.8e-09 m
   LDG =  3e-09 m
   EPSRSP =    3.9 
   TGATE =  1e-08 m
   TMASK =      0 m
   ASILIEND =      0 m^2
   ARSDEND =      0 m^2
   PRSDEND =      0 m
   NSDE =  3e+25 m^-3
   RGEOA =      1 
   RGEOB =      0 m^-1
   RGEOC =      0 m^-1
   RGEOD =      0 m^-1
   RGEOE =      0 m^-1
   CGEOA =      1 
   CGEOB =      0 m^-1
   CGEOC =      0 m^-1
   CGEOD =      0 m^-1
   CGEOE =      1 
   AIGBINV = 0.0111 (Fs^2/g)^0.5m^-1
   BIGBINV =   0.03 (Fs^2/g)^0.5m^-1
   CIGBINV =  0.006 V^-1
   EIGBINV =    1.1 V
   NIGBINV =    1.2 
   AIGBACC = 0.0149 
   BIGBACC = 0.000949 
   CIGBACC =  0.075 
   NIGBACC =      3 
   AIGC = 0.0136 (Fs^2/g)^0.5m^-1
   BIGC = 0.00171 (Fs^2/g)^0.5m^-1V^-1
   CIGC =  0.075 V^-1
   NIGC =      1 
   DLCIGS =      0 m
   AIGS = 0.0136 (Fs^2/g)^0.5m^-1
   BIGS = 0.00171 (Fs^2/g)^0.5m^-1V^-1
   CIGS =  0.075 V^-1
   DLCIGD =      0 m
   AIGD = 0.0136 (Fs^2/g)^0.5m^-1
   BIGD = 0.00171 (Fs^2/g)^0.5m^-1V^-1
   CIGD =  0.075 V^-1
   POXEDGE =      1 
   AGIDL = 5.729e-12 ohm^-1
   BGIDL =  3e+08 V/m
   EGIDL =    0.1 V
   AGISL = 5.729e-12 ohm^-1
   BGISL =  3e+08 V/m
   EGISL =    0.1 V
   ALPHA0 =      0 mV^-1
   ALPHA1 =      0 V^-1
   BETA0 =     30 V^-1
   ALPHAII =      0 
   BETAII0 =      0 V^-1
   BETAII1 =      0 
   BETAII2 =    0.1 V
   ESATII =  1e+07 V/m
   LII =  5e-10 V/m
   SII0 =    0.5 V^-1
   SII1 =    0.1 
   SII2 =      0 V
   SIID =      0 V
   EOTACC = 8.4e-10 m
   DELVFBACC =      0 V
   CFS = 2.56e-11 F/m
   CFD = 2.65e-11 F/m
   COVS = 2.5e-11 F/m
   COVD = 2.5e-11 F/m
   CGSO =      0 F/m
   CGDO =      0 F/m
   CGSL =      0 F/m
   CGDL =      0 F/m
   CKAPPAS =    0.6 V
   CKAPPAD =    0.6 V
   CGBO =      0 F/m
   CGBL =      0 F/m
   CKAPPAB =    0.6 V
   CSDESW =      0 F/m
   CJS = 0.0005 F/m^2
   CJD = 0.0005 F/m^2
   CJSWS =  5e-10 F/m
   CJSWD =  5e-10 F/m
   CJSWGS =      0 F/m
   CJSWGD =      0 F/m
   PBS =      1 V
   PBD =      1 V
   PBSWS =      1 V
   PBSWD =      1 V
   PBSWGS =      1 V
   PBSWGD =      1 V
   MJS, =    0.5 
   MJD =    0.5 
   MJSWS =   0.33 
   MJSWD =   0.33 
   MJSWGS =   0.33 
   MJSWGD =   0.33 
   SJS =      0 
   SJD =      0 
   SJSWS =      0 
   SJSWD =      0 
   SJSWGS =      0 
   SJSWGD =      0 
   MJS2 =  0.125 
   MJD2 =  0.125 
   MJSWS2 =   0.33 
   MJSWD2 =   0.33 
   MJSWGS2 =   0.33 
   MJSWGD2 =   0.33 
   JSS = 0.0001 A/m^2
   JSD = 0.0001 A/m^2
   JSWS =      0 A/m
   JSWD =      0 A/m
   JSWGS =      0 A/m
   JSWGD =      0 A/m
   NJS =      1 
   NJD =      1 
   IJTHSFWD =    0.1 A
   IJTHDFWD =    0.1 A
   IJTHSREV =    0.1 A
   IJTHDREV =    0.1 A
   BVS =     10 V
   BVD =     10 V
   XJBVS =      1 
   XJBVD =      1 
   JTSS =      0 A/m^2
   JTSD =      0 A/m^2
   JTSSWS =      0 A/m
   JTSSWD =      0 A/m
   JTSSWGS =      0 A/m
   JTSSWGD =      0 A/m
   JTWEFF =      0 m
   NJTS =     20 
   NJTSD =     20 
   NJTSSW =     20 
   NJTSSWD =     20 
   NJTSSWG =     20 
   NJTSSWGD =     20 
   VTSS =     10 V
   VTSD =     10 V
   VTSSWS =     10 V
   VTSSWD =     10 V
   VTSSWGS =     10 V
   VTSSWGD =     10 V
   LINTIGEN =      0 m
   NTGEN =      1 
   AIGEN =      0 m^-3V^-1
   BIGEN =      0 m^-3V^-3
   XRCRG1 =     12 
   XRCRG2 =      1 
   NSEG = 5 
   EF =      1 
   EM = 4.1e+07 V/m
   NOIA = 6.25e+39 eV^-1s^1-EFm^-3
   NOIB = 3.125e+24 eV^-1s^1-EFm^-1
   NOIC = 8.75e+07 eV^-1s^1-EFm
   NTNOI =      1 
   TNOM =  300.1 K
   TBGASUB = 0.000702 eV/K
   TBGBSUB =   1108 K
   KT1 =      0 V
   KT1L =      0 Vm
   IIT =   -0.5 
   TII =      0 
   TGIDL = -0.0003 K^-1
   IGT =    2.5 
   TCJ =      0 K^-1
   TCJSW =      0 K^-1
   TCJSWG =      0 K^-1
   TPB =      0 K^-1
   TPBSW =      0 K^-1
   TPBSWG =      0 K^-1
   XTIS =      3 
   XTID =      3 
   XTSS =   0.02 
   XTSD =   0.02 
   XTSSWS =   0.02 
   XTSSWD =   0.02 
   XTSSWGS =   0.02 
   XTSSWGD =   0.02 
   TNJTS =      0 
   TNJTSD =      0 
   TNJTSSW =      0 
   TNJTSSWD =      0 
   TNJTSSWG =      0 
   TNJTSSWGD =      0 
   RTH0 =   0.01 ohm
   CTH0 =  1e-05 F
   WTH0 =      0 m
   LNBODY =      0 
   NNBODY =      0 
   PNBODY =      0 
   LPHIG =      0 
   NPHIG =      0 
   PPHIG =      0 
   LNGATE =      0 
   NNGATE =      0 
   PNGATE =      0 
   LCIT =      0 
   NCIT =      0 
   PCIT =      0 
   LCDSC =      0 
   NCDSC =      0 
   PCDSC =      0 
   LCDSCD =      0 
   NCDSCD =      0 
   PCDSCD =      0 
   LCDSCDR =      0 
   NCDSCDR =      0 
   PCDSCDR =      0 
   LDVT0 =      0 
   NDVT0 =      0 
   PDVT0 =      0 
   LDVT1 =      0 
   NDVT1 =      0 
   PDVT1 =      0 
   LPHIN =      0 
   NPHIN =      0 
   PPHIN =      0 
   LETA0 =      0 
   NETA0 =      0 
   PETA0 =      0 
   LETA0R =      0 
   NETA0R =      0 
   PETA0R =      0 
   LDSUB =      0 
   NDSUB =      0 
   PDSUB =      0 
   LK1RSCE =      0 
   NK1RSCE =      0 
   PK1RSCE =      0 
   LLPE0 =      0 
   NLPE0 =      0 
   PLPE0 =      0 
   LQMFACTOR =      0 
   NQMFACTOR =      0 
   PQMFACTOR =      0 
   LQMTCENIV =      0 
   NQMTCENIV =      0 
   PQMTCENIV =      0 
   LQMTCENCV =      0 
   NQMTCENCV =      0 
   PQMTCENCV =      0 
   LVSAT =      0 
   NVSAT =      0 
   PVSAT =      0 
   LKSATIV =      0 
   NKSATIV =      0 
   PKSATIV =      0 
   LMEXP =      0 
   NMEXP =      0 
   PMEXP =      0 
   LPTWG =      0 
   NPTWG =      0 
   PPTWG =      0 
   LTHETASAT =      0 
   NTHETASAT =      0 
   PTHETASAT =      0 
   LU0 =      0 
   NU0 =      0 
   PU0 =      0 
   LUP =      0 
   NUP =      0 
   PUP =      0 
   LUA =      0 
   NUA =      0 
   PUA =      0 
   LEU =      0 
   NEU =      0 
   PEU =      0 
   LUD =      0 
   NUD =      0 
   PUD =      0 
   LUCS =      0 
   NUCS =      0 
   PUCS =      0 
   LPCLM =      0 
   NPCLM =      0 
   PPCLM =      0 
   LPCLMCV =      0 
   NPCLMCV =      0 
   PPCLMCV =      0 
   LRDSW =      0 
   NRDSW =      0 
   PRDSW =      0 
   LRSW =      0 
   NRSW =      0 
   PRSW =      0 
   LRDW =      0 
   NRDW =      0 
   PRDW =      0 
   LPRWG =      0 
   NPRWG =      0 
   PPRWG =      0 
   LWR =      0 
   NWR =      0 
   PWR =      0 
   LPDIBL1 =      0 
   NPDIBL1 =      0 
   PPDIBL1 =      0 
   LPDIBL2 =      0 
   NPDIBL2 =      0 
   PPDIBL2 =      0 
   LDROUT =      0 
   NDROUT =      0 
   PDROUT =      0 
   LPVAG =      0 
   NPVAG =      0 
   PPVAG =      0 
   LAIGBINV =      0 
   NAIGBINV =      0 
   PAIGBINV =      0 
   LBIGBINV =      0 
   NBIGBINV =      0 
   PBIGBINV =      0 
   LCIGBINV =      0 
   NCIGBINV =      0 
   PCIGBINV =      0 
   LEIGBINV =      0 
   NEIGBINV =      0 
   PEIGBINV =      0 
   LNIGBINV =      0 
   NNIGBINV =      0 
   PNIGBINV =      0 
   LAIGC =      0 
   NAIGC =      0 
   PAIGC =      0 
   LBIGC =      0 
   NBIGC =      0 
   PBIGC =      0 
   LCIGC =      0 
   NCIGC =      0 
   PCIGC =      0 
   LNIGC =      0 
   NNIGC =      0 
   PNIGC =      0 
   LAIGS =      0 
   NAIGS =      0 
   PAIGS =      0 
   LBIGS =      0 
   NBIGS =      0 
   PBIGS =      0 
   LCIGS =      0 
   NCIGS =      0 
   PCIGS =      0 
   LAIGD =      0 
   NAIGD =      0 
   PAIGD =      0 
   LBIGD =      0 
   NBIGD =      0 
   PBIGD =      0 
   LCIGD =      0 
   NCIGD =      0 
   PCIGD =      0 
   LPOXEDGE =      0 
   NPOXEDGE =      0 
   PPOXEDGE =      0 
   LAGIDL =      0 
   NAGIDL =      0 
   PAGIDL =      0 
   LBGIDL =      0 
   NBGIDL =      0 
   PBGIDL =      0 
   LEGIDL =      0 
   NEGIDL =      0 
   PEGIDL =      0 
   LAGISL =      0 
   NAGISL =      0 
   PAGISL =      0 
   LBGISL =      0 
   NBGISL =      0 
   PBGISL =      0 
   LEGISL =      0 
   NEGISL =      0 
   PEGISL =      0 
   LALPHA0 =      0 
   NALPHA0 =      0 
   PALPHA0 =      0 
   LALPHA1 =      0 
   NALPHA1 =      0 
   PALPHA1 =      0 
   LBETA0 =      0 
   NBETA0 =      0 
   PBETA0 =      0 
   LALPHAII =      0 
   NALPHAII =      0 
   PALPHAII =      0 
   LBETAII0 =      0 
   NBETAII0 =      0 
   PBETAII0 =      0 
   LBETAII1 =      0 
   NBETAII1 =      0 
   PBETAII1 =      0 
   LBETAII2 =      0 
   NBETAII2 =      0 
   PBETAII2 =      0 
   LESATII =      0 
   NESATII =      0 
   PESATII =      0 
   LLII =      0 
   NLII =      0 
   PLII =      0 
   LSII0 =      0 
   NSII0 =      0 
   PSII0 =      0 
   LSII1 =      0 
   NSII1 =      0 
   PSII1 =      0 
   LSII2 =      0 
   NSII2 =      0 
   PSII2 =      0 
   LSIID =      0 
   NSIID =      0 
   PSIID =      0 
   LCFS =      0 
   NCFS =      0 
   PCFS =      0 
   LCFD =      0 
   NCFD =      0 
   PCFD =      0 
   LCOVS =      0 
   NCOVS =      0 
   PCOVS =      0 
   LCOVD =      0 
   NCOVD =      0 
   PCOVD =      0 
   LCGSL =      0 
   NCGSL =      0 
   PCGSL =      0 
   LCGDL =      0 
   NCGDL =      0 
   PCGDL =      0 
   LCKAPPAS =      0 
   NCKAPPAS =      0 
   PCKAPPAS =      0 
   LCKAPPAD =      0 
   NCKAPPAD =      0 
   PCKAPPAD =      0 
   LCGBL =      0 
   NCGBL =      0 
   PCGBL =      0 
   LCKAPPAB =      0 
   NCKAPPAB =      0 
   PCKAPPAB =      0 
   LNTGEN =      0 
   NNTGEN =      0 
   PNTGEN =      0 
   LAIGEN =      0 
   NAIGEN =      0 
   PAIGEN =      0 
   LBIGEN =      0 
   NBIGEN =      0 
   PBIGEN =      0 
   LXRCRG1 =      0 
   NXRCRG1 =      0 
   PXRCRG1 =      0 
   LXRCRG2 =      0 
   NXRCRG2 =      0 
   PXRCRG2 =      0 
   LINTNOI =      0 
   NINTNOI =      0 
   PINTNOI =      0 
   LUTE =      0 
   NUTE =      0 
   PUTE =      0 
   LUTL =      0 
   NUTL =      0 
   PUTL =      0 
   LUA1 =      0 
   NUA1 =      0 
   PUA1 =      0 
   LUD1 =      0 
   NUD1 =      0 
   PUD1 =      0 
   LUCSTE =      0 
   NUCSTE =      0 
   PUCSTE =      0 
   LPTWGT =      0 
   NPTWGT =      0 
   PPTWGT =      0 
   LAT =      0 
   NAT =      0 
   PAT =      0 
   LSTTHETASAT =      0 
   NSTTHETASAT =      0 
   PSTTHETASAT =      0 
   LPRT =      0 
   NPRT =      0 
   PPRT =      0 
   LIIT =      0 
   NIIT =      0 
   PIIT =      0 
   LTII =      0 
   NTII =      0 
   PTII =      0 
   LTGIDL =      0 
   NTGIDL =      0 
   PTGIDL =      0 
   LIGT =      0 
   NIGT =      0 
   PIGT =      0 
   L = 2.4e-08 m
   D =  4e-08 m
   TFIN = 1.5e-08 m
   FPITCH =  6e-08 m
   NF = 1 
   NFIN = 1 
   NGCON = 1 
   ASEO =      0 m^2
   ADEO =      0 m^2
   PSEO =      0 m
   PDEO =      0 m
   ASEJ =      0 m^2
   ADEJ =      0 m^2
   PSEJ =      0 m
   PDEJ =      0 m
   CGSP =      0 F
   CGDP =      0 F
   CDSP =      0 F
   NRS =      0 
   NRD =      0 
   LRSD = 2.4e-08 m
   XL =      0 m
   DELVTRAND =      0 
   U0MULT =      1 
   IDS0MULT =      1 
   Lmin =  1e-08 m
   Lmax = 2.4e-08 m
   NFINmin = 0 
   NFINmax = 1 
   LVSAT1 =      0 
   NVSAT1 =      0 
   PVSAT1 =      0 
   LETAMOB =      0 
   NETAMOB =      0 
   PETAMOB =      0 
   LPCLMG =      0 
   NPCLMG =      0 
   PPCLMG =      0 
   LVASAT =      0 
   NVASAT =      0 
   PVASAT =      0 
   LAIGBACC =      0 
   NAIGBACC =      0 
   PAIGBACC =      0 
   LBIGBACC =      0 
   NBIGBACC =      0 
   PBIGBACC =      0 
   LCIGBACC =      0 
   NCIGBACC =      0 
   PCIGBACC =      0 
   LNIGBACC =      0 
   NNIGBACC =      0 
   PNIGBACC =      0 
 Model Name: nfet 
 BSIM-MG BULK Model(Level72)
   VERSION = 105.03  
   DEVTYPE = 1 
   BULKMOD = 1  
   COREMOD = 0 
   GEOMOD = 1 
   RDSMOD = 1 
   IGCMOD = 1 
   IGBMOD = 1 
   GIDLMOD = 0 
   IIMOD = 0 
   NQSMOD = 0 
   SHMOD = 0 
   RGATEMOD = 0 
   RGEOMOD = 1 
   CGEOMOD = 2 
   CAPMOD = 0 
   LINT =  1e-09 m
   LL =      0 m^(LLN+1)
   LLN =      1 
   DLC =      0 m
   DLBIN =      0 
   LLC =      0 m^(LLN+1)
   EOT = 8.4e-10 m
   TOXP = 1.4e-09 m
   EOTBOX = 1.4e-07 m
   HFIN = 2.8e-08 m
   FECH =      1 
   DELTAW =      0 m
   FECHCV =      1 
   DELTAWCV =      0 m
   NBODY =  5e+23 m^-3
   NSD =  3e+26 m^-3
   PHIG =  4.375 eV
   EPSROX =    3.9 
   EPSRSUB =   11.9 
   EASUB =   4.05 eV
   NI0SUB = 1.1e+16 m^-3
   BG0SUB =   1.12 eV
   NC0SUB = 2.86e+25 m^-3
   NGATE =      0 m^-3
   CIT = 1.3e-05 F/m^2
   CDSC = 0.0132 F/m^2
   CDSCD =  0.007 F/m^2
   CDSCDR =  0.007 
   DVT0 =   0.01 
   DVT1 =   0.69 
   PHIN =   0.05 V
   ETA0 = 0.5063 
   ETA0R = 0.5063 
   DSUB =    0.9 
   K1RSCE =      0 V^1/2
   LPE0 =  5e-09 m
   DVTSHIFT =      0 
   QMFACTOR =      0 
   QMTCENIV =      0 
   QMTCENCV =      0 
   AQMTCEN =      0 
   BQMTCEN = 1.2e-08 
   ETAQM =   0.54 
   QM0 = 0.001143 
   PQM =   0.66 
   QM0ACC =  0.001 
   PQMACC =   0.66 
   VSAT = 8.5e+04 
   AVSAT =      0 
   BVSAT =  1e-07 
   VSAT1 = 8.5e+04 
   AVSAT1 =      0 
   BVSAT1 =  1e-07 
   DELTAVSAT =      1 
   KSATIV =    0.8 
   MEXP =      3 
   AMEXP =      0 
   BMEXP =      1 
   PTWG =      0 
   APTWG =      0 
   BPTWG =  1e-07 
   AT = -0.00156 
   TMEXP =      0 
   PTWGT =  0.004 
   U0 =  0.038 
   ETAMOB =      2 
   UP =      0 
   LPA =      1 
   UA =    0.3 
   AUA =      0 
   BUA =  1e-07 
   EU =    1.8 
   AEU =      0 
   BEU =  1e-07 
   UD =      0 
   AUD =      0 
   BUD =  5e-08 
   UCS =      0 
   UTE =      0 
   UTL = -0.0015 
   UA1 = 0.001032 
   UD1 =      0 
   UCSTE = -0.00478 
   RDSWMIN =      0 
   RDSW =    100 
   ARDSW =      0 
   BRDSW =  1e-07 
   RSWMIN =      0 
   RSW =      0 
   ARSW =      0 
   BRSW =  1e-07 
   RDWMIN =      0 
   RDW =      0 
   ARDW =      0 
   BRDW =  1e-07 
   PRWG =      0 
   WR =      1 
   PRT =  0.001 
   PDIBL1 =    1.3 
   PDIBL2 = 0.0002 
   DROUT =   1.06 
   PVAG =      1 
   PCLM =    0.2 
   APCLM =      0 
   BPCLM =  1e-07 
   PCLMG =      0 
   VASAT =    0.6 
   PCLMCV =  0.013 
   PCLMGCV =      0 
   VASATCV =    0.2 
   RGEXT =      0 ohm
   RGFIN =  0.001 ohm
   RSHS =      0 ohm
   RSHD =      0 ohm
   HEPI =  1e-08 m
   TSILI =  1e-08 m
   RHOC =  4e-12 ohm/m^2
   RHORSD =      1 ohm/m
   RHOEXT =      1 ohm/m
   CRATIO =    0.5 
   DELTAPRSD =      0 m
   SDTERM = 0 
   LSP = 4.8e-09 m
   LDG =  3e-09 m
   EPSRSP =    3.9 
   TGATE =  1e-08 m
   TMASK =      0 m
   ASILIEND =      0 m^2
   ARSDEND =      0 m^2
   PRSDEND =      0 m
   NSDE =  3e+25 m^-3
   RGEOA =      1 
   RGEOB =      0 m^-1
   RGEOC =      0 m^-1
   RGEOD =      0 m^-1
   RGEOE =      0 m^-1
   CGEOA =      1 
   CGEOB =      0 m^-1
   CGEOC =      0 m^-1
   CGEOD =      0 m^-1
   CGEOE =      1 
   AIGBINV = 0.0111 (Fs^2/g)^0.5m^-1
   BIGBINV =   0.03 (Fs^2/g)^0.5m^-1
   CIGBINV =  0.006 V^-1
   EIGBINV =    1.1 V
   NIGBINV =    1.2 
   AIGBACC = 0.0149 
   BIGBACC = 0.000949 
   CIGBACC =  0.075 
   NIGBACC =      3 
   AIGC = 0.0136 (Fs^2/g)^0.5m^-1
   BIGC = 0.00171 (Fs^2/g)^0.5m^-1V^-1
   CIGC =  0.075 V^-1
   NIGC =      1 
   DLCIGS =      0 m
   AIGS = 0.0136 (Fs^2/g)^0.5m^-1
   BIGS = 0.00171 (Fs^2/g)^0.5m^-1V^-1
   CIGS =  0.075 V^-1
   DLCIGD =      0 m
   AIGD = 0.0136 (Fs^2/g)^0.5m^-1
   BIGD = 0.00171 (Fs^2/g)^0.5m^-1V^-1
   CIGD =  0.075 V^-1
   POXEDGE =      1 
   AGIDL = 5.729e-12 ohm^-1
   BGIDL =  3e+08 V/m
   EGIDL =    0.1 V
   AGISL = 5.729e-12 ohm^-1
   BGISL =  3e+08 V/m
   EGISL =    0.1 V
   ALPHA0 =      0 mV^-1
   ALPHA1 =      0 V^-1
   BETA0 =     30 V^-1
   ALPHAII =      0 
   BETAII0 =      0 V^-1
   BETAII1 =      0 
   BETAII2 =    0.1 V
   ESATII =  1e+07 V/m
   LII =  5e-10 V/m
   SII0 =    0.5 V^-1
   SII1 =    0.1 
   SII2 =      0 V
   SIID =      0 V
   EOTACC = 8.4e-10 m
   DELVFBACC =      0 V
   CFS = 2.56e-11 F/m
   CFD = 2.65e-11 F/m
   COVS = 2.5e-11 F/m
   COVD = 2.5e-11 F/m
   CGSO =      0 F/m
   CGDO =      0 F/m
   CGSL =      0 F/m
   CGDL =      0 F/m
   CKAPPAS =    0.6 V
   CKAPPAD =    0.6 V
   CGBO =      0 F/m
   CGBL =      0 F/m
   CKAPPAB =    0.6 V
   CSDESW =      0 F/m
   CJS = 0.0005 F/m^2
   CJD = 0.0005 F/m^2
   CJSWS =  5e-10 F/m
   CJSWD =  5e-10 F/m
   CJSWGS =      0 F/m
   CJSWGD =      0 F/m
   PBS =      1 V
   PBD =      1 V
   PBSWS =      1 V
   PBSWD =      1 V
   PBSWGS =      1 V
   PBSWGD =      1 V
   MJS, =    0.5 
   MJD =    0.5 
   MJSWS =   0.33 
   MJSWD =   0.33 
   MJSWGS =   0.33 
   MJSWGD =   0.33 
   SJS =      0 
   SJD =      0 
   SJSWS =      0 
   SJSWD =      0 
   SJSWGS =      0 
   SJSWGD =      0 
   MJS2 =  0.125 
   MJD2 =  0.125 
   MJSWS2 =   0.33 
   MJSWD2 =   0.33 
   MJSWGS2 =   0.33 
   MJSWGD2 =   0.33 
   JSS = 0.0001 A/m^2
   JSD = 0.0001 A/m^2
   JSWS =      0 A/m
   JSWD =      0 A/m
   JSWGS =      0 A/m
   JSWGD =      0 A/m
   NJS =      1 
   NJD =      1 
   IJTHSFWD =    0.1 A
   IJTHDFWD =    0.1 A
   IJTHSREV =    0.1 A
   IJTHDREV =    0.1 A
   BVS =     10 V
   BVD =     10 V
   XJBVS =      1 
   XJBVD =      1 
   JTSS =      0 A/m^2
   JTSD =      0 A/m^2
   JTSSWS =      0 A/m
   JTSSWD =      0 A/m
   JTSSWGS =      0 A/m
   JTSSWGD =      0 A/m
   JTWEFF =      0 m
   NJTS =     20 
   NJTSD =     20 
   NJTSSW =     20 
   NJTSSWD =     20 
   NJTSSWG =     20 
   NJTSSWGD =     20 
   VTSS =     10 V
   VTSD =     10 V
   VTSSWS =     10 V
   VTSSWD =     10 V
   VTSSWGS =     10 V
   VTSSWGD =     10 V
   LINTIGEN =      0 m
   NTGEN =      1 
   AIGEN =      0 m^-3V^-1
   BIGEN =      0 m^-3V^-3
   XRCRG1 =     12 
   XRCRG2 =      1 
   NSEG = 5 
   EF =      1 
   EM = 4.1e+07 V/m
   NOIA = 6.25e+39 eV^-1s^1-EFm^-3
   NOIB = 3.125e+24 eV^-1s^1-EFm^-1
   NOIC = 8.75e+07 eV^-1s^1-EFm
   NTNOI =      1 
   TNOM =  300.1 K
   TBGASUB = 0.000702 eV/K
   TBGBSUB =   1108 K
   KT1 =      0 V
   KT1L =      0 Vm
   IIT =   -0.5 
   TII =      0 
   TGIDL = -0.0003 K^-1
   IGT =    2.5 
   TCJ =      0 K^-1
   TCJSW =      0 K^-1
   TCJSWG =      0 K^-1
   TPB =      0 K^-1
   TPBSW =      0 K^-1
   TPBSWG =      0 K^-1
   XTIS =      3 
   XTID =      3 
   XTSS =   0.02 
   XTSD =   0.02 
   XTSSWS =   0.02 
   XTSSWD =   0.02 
   XTSSWGS =   0.02 
   XTSSWGD =   0.02 
   TNJTS =      0 
   TNJTSD =      0 
   TNJTSSW =      0 
   TNJTSSWD =      0 
   TNJTSSWG =      0 
   TNJTSSWGD =      0 
   RTH0 =   0.01 ohm
   CTH0 =  1e-05 F
   WTH0 =      0 m
   LNBODY =      0 
   NNBODY =      0 
   PNBODY =      0 
   LPHIG =      0 
   NPHIG =      0 
   PPHIG =      0 
   LNGATE =      0 
   NNGATE =      0 
   PNGATE =      0 
   LCIT =      0 
   NCIT =      0 
   PCIT =      0 
   LCDSC =      0 
   NCDSC =      0 
   PCDSC =      0 
   LCDSCD =      0 
   NCDSCD =      0 
   PCDSCD =      0 
   LCDSCDR =      0 
   NCDSCDR =      0 
   PCDSCDR =      0 
   LDVT0 =      0 
   NDVT0 =      0 
   PDVT0 =      0 
   LDVT1 =      0 
   NDVT1 =      0 
   PDVT1 =      0 
   LPHIN =      0 
   NPHIN =      0 
   PPHIN =      0 
   LETA0 =      0 
   NETA0 =      0 
   PETA0 =      0 
   LETA0R =      0 
   NETA0R =      0 
   PETA0R =      0 
   LDSUB =      0 
   NDSUB =      0 
   PDSUB =      0 
   LK1RSCE =      0 
   NK1RSCE =      0 
   PK1RSCE =      0 
   LLPE0 =      0 
   NLPE0 =      0 
   PLPE0 =      0 
   LQMFACTOR =      0 
   NQMFACTOR =      0 
   PQMFACTOR =      0 
   LQMTCENIV =      0 
   NQMTCENIV =      0 
   PQMTCENIV =      0 
   LQMTCENCV =      0 
   NQMTCENCV =      0 
   PQMTCENCV =      0 
   LVSAT =      0 
   NVSAT =      0 
   PVSAT =      0 
   LKSATIV =      0 
   NKSATIV =      0 
   PKSATIV =      0 
   LMEXP =      0 
   NMEXP =      0 
   PMEXP =      0 
   LPTWG =      0 
   NPTWG =      0 
   PPTWG =      0 
   LTHETASAT =      0 
   NTHETASAT =      0 
   PTHETASAT =      0 
   LU0 =      0 
   NU0 =      0 
   PU0 =      0 
   LUP =      0 
   NUP =      0 
   PUP =      0 
   LUA =      0 
   NUA =      0 
   PUA =      0 
   LEU =      0 
   NEU =      0 
   PEU =      0 
   LUD =      0 
   NUD =      0 
   PUD =      0 
   LUCS =      0 
   NUCS =      0 
   PUCS =      0 
   LPCLM =      0 
   NPCLM =      0 
   PPCLM =      0 
   LPCLMCV =      0 
   NPCLMCV =      0 
   PPCLMCV =      0 
   LRDSW =      0 
   NRDSW =      0 
   PRDSW =      0 
   LRSW =      0 
   NRSW =      0 
   PRSW =      0 
   LRDW =      0 
   NRDW =      0 
   PRDW =      0 
   LPRWG =      0 
   NPRWG =      0 
   PPRWG =      0 
   LWR =      0 
   NWR =      0 
   PWR =      0 
   LPDIBL1 =      0 
   NPDIBL1 =      0 
   PPDIBL1 =      0 
   LPDIBL2 =      0 
   NPDIBL2 =      0 
   PPDIBL2 =      0 
   LDROUT =      0 
   NDROUT =      0 
   PDROUT =      0 
   LPVAG =      0 
   NPVAG =      0 
   PPVAG =      0 
   LAIGBINV =      0 
   NAIGBINV =      0 
   PAIGBINV =      0 
   LBIGBINV =      0 
   NBIGBINV =      0 
   PBIGBINV =      0 
   LCIGBINV =      0 
   NCIGBINV =      0 
   PCIGBINV =      0 
   LEIGBINV =      0 
   NEIGBINV =      0 
   PEIGBINV =      0 
   LNIGBINV =      0 
   NNIGBINV =      0 
   PNIGBINV =      0 
   LAIGC =      0 
   NAIGC =      0 
   PAIGC =      0 
   LBIGC =      0 
   NBIGC =      0 
   PBIGC =      0 
   LCIGC =      0 
   NCIGC =      0 
   PCIGC =      0 
   LNIGC =      0 
   NNIGC =      0 
   PNIGC =      0 
   LAIGS =      0 
   NAIGS =      0 
   PAIGS =      0 
   LBIGS =      0 
   NBIGS =      0 
   PBIGS =      0 
   LCIGS =      0 
   NCIGS =      0 
   PCIGS =      0 
   LAIGD =      0 
   NAIGD =      0 
   PAIGD =      0 
   LBIGD =      0 
   NBIGD =      0 
   PBIGD =      0 
   LCIGD =      0 
   NCIGD =      0 
   PCIGD =      0 
   LPOXEDGE =      0 
   NPOXEDGE =      0 
   PPOXEDGE =      0 
   LAGIDL =      0 
   NAGIDL =      0 
   PAGIDL =      0 
   LBGIDL =      0 
   NBGIDL =      0 
   PBGIDL =      0 
   LEGIDL =      0 
   NEGIDL =      0 
   PEGIDL =      0 
   LAGISL =      0 
   NAGISL =      0 
   PAGISL =      0 
   LBGISL =      0 
   NBGISL =      0 
   PBGISL =      0 
   LEGISL =      0 
   NEGISL =      0 
   PEGISL =      0 
   LALPHA0 =      0 
   NALPHA0 =      0 
   PALPHA0 =      0 
   LALPHA1 =      0 
   NALPHA1 =      0 
   PALPHA1 =      0 
   LBETA0 =      0 
   NBETA0 =      0 
   PBETA0 =      0 
   LALPHAII =      0 
   NALPHAII =      0 
   PALPHAII =      0 
   LBETAII0 =      0 
   NBETAII0 =      0 
   PBETAII0 =      0 
   LBETAII1 =      0 
   NBETAII1 =      0 
   PBETAII1 =      0 
   LBETAII2 =      0 
   NBETAII2 =      0 
   PBETAII2 =      0 
   LESATII =      0 
   NESATII =      0 
   PESATII =      0 
   LLII =      0 
   NLII =      0 
   PLII =      0 
   LSII0 =      0 
   NSII0 =      0 
   PSII0 =      0 
   LSII1 =      0 
   NSII1 =      0 
   PSII1 =      0 
   LSII2 =      0 
   NSII2 =      0 
   PSII2 =      0 
   LSIID =      0 
   NSIID =      0 
   PSIID =      0 
   LCFS =      0 
   NCFS =      0 
   PCFS =      0 
   LCFD =      0 
   NCFD =      0 
   PCFD =      0 
   LCOVS =      0 
   NCOVS =      0 
   PCOVS =      0 
   LCOVD =      0 
   NCOVD =      0 
   PCOVD =      0 
   LCGSL =      0 
   NCGSL =      0 
   PCGSL =      0 
   LCGDL =      0 
   NCGDL =      0 
   PCGDL =      0 
   LCKAPPAS =      0 
   NCKAPPAS =      0 
   PCKAPPAS =      0 
   LCKAPPAD =      0 
   NCKAPPAD =      0 
   PCKAPPAD =      0 
   LCGBL =      0 
   NCGBL =      0 
   PCGBL =      0 
   LCKAPPAB =      0 
   NCKAPPAB =      0 
   PCKAPPAB =      0 
   LNTGEN =      0 
   NNTGEN =      0 
   PNTGEN =      0 
   LAIGEN =      0 
   NAIGEN =      0 
   PAIGEN =      0 
   LBIGEN =      0 
   NBIGEN =      0 
   PBIGEN =      0 
   LXRCRG1 =      0 
   NXRCRG1 =      0 
   PXRCRG1 =      0 
   LXRCRG2 =      0 
   NXRCRG2 =      0 
   PXRCRG2 =      0 
   LINTNOI =      0 
   NINTNOI =      0 
   PINTNOI =      0 
   LUTE =      0 
   NUTE =      0 
   PUTE =      0 
   LUTL =      0 
   NUTL =      0 
   PUTL =      0 
   LUA1 =      0 
   NUA1 =      0 
   PUA1 =      0 
   LUD1 =      0 
   NUD1 =      0 
   PUD1 =      0 
   LUCSTE =      0 
   NUCSTE =      0 
   PUCSTE =      0 
   LPTWGT =      0 
   NPTWGT =      0 
   PPTWGT =      0 
   LAT =      0 
   NAT =      0 
   PAT =      0 
   LSTTHETASAT =      0 
   NSTTHETASAT =      0 
   PSTTHETASAT =      0 
   LPRT =      0 
   NPRT =      0 
   PPRT =      0 
   LIIT =      0 
   NIIT =      0 
   PIIT =      0 
   LTII =      0 
   NTII =      0 
   PTII =      0 
   LTGIDL =      0 
   NTGIDL =      0 
   PTGIDL =      0 
   LIGT =      0 
   NIGT =      0 
   PIGT =      0 
   L = 2.4e-08 m
   D =  4e-08 m
   TFIN = 1.5e-08 m
   FPITCH =  6e-08 m
   NF = 1 
   NFIN = 1 
   NGCON = 1 
   ASEO =      0 m^2
   ADEO =      0 m^2
   PSEO =      0 m
   PDEO =      0 m
   ASEJ =      0 m^2
   ADEJ =      0 m^2
   PSEJ =      0 m
   PDEJ =      0 m
   CGSP =      0 F
   CGDP =      0 F
   CDSP =      0 F
   NRS =      0 
   NRD =      0 
   LRSD = 2.4e-08 m
   XL =      0 m
   DELVTRAND =      0 
   U0MULT =      1 
   IDS0MULT =      1 
   Lmin =  1e-08 m
   Lmax = 2.4e-08 m
   NFINmin = 0 
   NFINmax = 1 
   LVSAT1 =      0 
   NVSAT1 =      0 
   PVSAT1 =      0 
   LETAMOB =      0 
   NETAMOB =      0 
   PETAMOB =      0 
   LPCLMG =      0 
   NPCLMG =      0 
   PPCLMG =      0 
   LVASAT =      0 
   NVASAT =      0 
   PVASAT =      0 
   LAIGBACC =      0 
   NAIGBACC =      0 
   PAIGBACC =      0 
   LBIGBACC =      0 
   NBIGBACC =      0 
   PBIGBACC =      0 
   LCIGBACC =      0 
   NCIGBACC =      0 
   PCIGBACC =      0 
   LNIGBACC =      0 
   NNIGBACC =      0 
   PNIGBACC =      0 
  **info** (ptm20hp.sp:15) DC voltage reset to initial transient source value              in source        0:vin_0               new dc=  0.9000D+00
  
 **warning**  No DC path to ground from node        0:outin_40         defined in subckt 0               ; Connected by HSPICE with gdcpath


      
 **info** set option symb=1 internally to help for convergence.
 *****************************************************************
 ******  option summary
 ******
 runlvl  = 3         bypass  = 2         
  Opening plot unit= 15
 file=ptm20hp.pa0                                                              

1****** HSPICE -- F-2011.09-SP2 64-BIT (Feb 27 2012) linux ******               
 ******  
 $this uut was automatically generated by:

  ******  operating point information tnom=  25.000 temp=  25.000 *****
 ***** operating point status is voltage   simulation time is     0.     
     node    =voltage       node    =voltage       node    =voltage

 + 0:inb_0   = 900.0000m  0:inb_1   = 900.0000m  0:inb_2   = 900.0000m
 + 0:outb_00 = 899.0395m  0:outb_10 = 899.0395m  0:outb_20 = 899.0395m
 + 0:outin_00= 425.5240u  0:outin_01= 425.5240u  0:outin_02= 425.5240u
 + 0:outin_10= 899.5633m  0:outin_11= 899.5633m  0:outin_12= 899.5633m
 + 0:outin_20= 430.7096u  0:outin_21= 430.7096u  0:outin_22= 430.7096u
 + 0:outin_30= 899.5634m  0:outin_31= 899.5634m  0:outin_32= 899.5634m
 + 0:outin_40=  28.8760m  0:outin_41=  28.8760m  0:outin_42=  28.8760m
 + 0:vdd     = 900.0000m

 ******  
 $this uut was automatically generated by:

  ******  transient analysis tnom=  25.000 temp=  25.000 *****
 trf_delay_001=   3.7421p  targ=  35.0357p   trig=  31.2935p
 tfr_delay_001=   3.3141p  targ=   1.0834n   trig=   1.0801n
 trf_delay_002=   3.7323p  targ=   2.0354n   trig=   2.0316n
 tfr_delay_002=  -1.0366n  targ=   2.0435n   trig=   3.0801n
 trf_delay_003=  -1.9866n  targ=   2.0451n   trig=   4.0317n
 tfr_delay_003=  -1.9953n  targ=   3.0845n   trig=   5.0798n
 trf_delay_004=  -1.9957n  targ=   4.0360n   trig=   6.0317n
 tfr_delay_004=-959.3197p  targ=   5.0842n   trig=   6.0435n
 trf_delay_101=   4.4122p  targ=   1.0879n   trig=   1.0834n
 tfr_delay_101=   3.3801p  targ=  38.4158p   trig=  35.0357p
 trf_delay_102=   1.0446n  targ=   3.0881n   trig=   2.0435n
 tfr_delay_102=   4.0798p  targ=   2.0394n   trig=   2.0354n
 trf_delay_103=   2.0033n  targ=   5.0878n   trig=   3.0845n
 tfr_delay_103=   1.9944n  targ=   4.0395n   trig=   2.0451n
 trf_delay_104=   2.0041n  targ=   7.0883n   trig=   5.0842n
 tfr_delay_104=   2.0040n  targ=   6.0400n   trig=   4.0360n
 trf_delay_201=   1.5682p  targ=  39.9840p   trig=  38.4158p
 tfr_delay_201=   1.0754p  targ=   1.0889n   trig=   1.0879n
 trf_delay_202=   1.6243p  targ=   2.0411n   trig=   2.0394n
 tfr_delay_202=  -1.0447n  targ=   2.0434n   trig=   3.0881n
 trf_delay_203=  -1.9944n  targ=   2.0451n   trig=   4.0395n
 tfr_delay_203=  -1.9981n  targ=   3.0897n   trig=   5.0878n
 trf_delay_204=  -1.9989n  targ=   4.0411n   trig=   6.0400n
 tfr_delay_204=  -1.9987n  targ=   5.0895n   trig=   7.0883n
 trf_delay_011=   3.7421p  targ=  35.0357p   trig=  31.2935p
 tfr_delay_011=   4.2874p  targ=   2.0847n   trig=   2.0804n
 trf_delay_012=   4.2966p  targ=   4.0360n   trig=   4.0317n
 tfr_delay_012=   4.5197p  targ=   6.0847n   trig=   6.0802n
 trf_delay_111=   3.4042p  targ=   2.0881n   trig=   2.0847n
 tfr_delay_111=   3.3801p  targ=  38.4158p   trig=  35.0357p
 trf_delay_112=   3.5911p  targ=   6.0883n   trig=   6.0847n
 tfr_delay_112=   3.4605p  targ=   4.0395n   trig=   4.0360n
 trf_delay_211=   1.5682p  targ=  39.9840p   trig=  38.4158p
 tfr_delay_211=   2.3827p  targ=   2.0905n   trig=   2.0881n
 trf_delay_212=   1.5856p  targ=   4.0411n   trig=   4.0395n
 tfr_delay_212=   1.6456p  targ=   6.0899n   trig=   6.0883n
 trf_delay_021=   3.7421p  targ=  35.0357p   trig=  31.2935p
 tfr_delay_021=   4.0449p  targ=   4.0838n   trig=   4.0798n
 trf_delay_121=   4.2509p  targ=   4.0881n   trig=   4.0838n
 tfr_delay_121=   3.3801p  targ=  38.4158p   trig=  35.0357p
 trf_delay_221=   1.5682p  targ=  39.9840p   trig=  38.4158p
 tfr_delay_221=   1.1545p  targ=   4.0892n   trig=   4.0881n
x

        time    voltage      voltage    
                 outin_00     outin_10  
    0.          425.5240u    899.5633m  
   10.00000p     10.8560m    901.1137m  
   20.00000p    116.9846m    885.8968m  
   30.00000p    400.3000m    770.8031m  
   40.00000p    788.0396m    111.2092m  
   50.00000p    884.1289m      5.1232m  
   60.00000p    899.5775m    519.7241u  
   70.00000p    899.5735m    434.9022u  
   80.00000p    899.5709m    431.8974u  
   90.00000p    899.5571m    420.3611u  
  100.00000p    899.5620m    424.9014u  
  110.00000p    899.5669m    429.4417u  
  120.00000p    899.5718m    433.9819u  
  130.00000p    899.5768m    438.5222u  
  140.00000p    899.5791m    440.6452u  
  150.00000p    899.5773m    438.9870u  
  160.00000p    899.5756m    437.3288u  
  170.00000p    899.5738m    435.6706u  
  180.00000p    899.5721m    434.0124u  
  190.00000p    899.5703m    432.3542u  
  200.00000p    899.5686m    430.6960u  
  210.00000p    899.5668m    429.0378u  
  220.00000p    899.5651m    427.3796u  
  230.00000p    899.5633m    425.7214u  
  240.00000p    899.5616m    424.0632u  
  250.00000p    899.5598m    422.4050u  
  260.00000p    899.5581m    420.7468u  
  270.00000p    899.5582m    420.8619u  
  280.00000p    899.5590m    421.6471u  
  290.00000p    899.5598m    422.4322u  
  300.00000p    899.5606m    423.2174u  
  310.00000p    899.5615m    424.0026u  
  320.00000p    899.5623m    424.7878u  
  330.00000p    899.5631m    425.5730u  
  340.00000p    899.5639m    426.3581u  
  350.00000p    899.5647m    427.1433u  
  360.00000p    899.5656m    427.9285u  
  370.00000p    899.5664m    428.7137u  
  380.00000p    899.5672m    429.4989u  
  390.00000p    899.5680m    430.2840u  
  400.00000p    899.5689m    431.0692u  
  410.00000p    899.5697m    431.8544u  
  420.00000p    899.5705m    432.6396u  
  430.00000p    899.5713m    433.4248u  
  440.00000p    899.5721m    434.2100u  
  450.00000p    899.5730m    434.9951u  
  460.00000p    899.5738m    435.7803u  
  470.00000p    899.5746m    436.5655u  
  480.00000p    899.5754m    437.3507u  
  490.00000p    899.5762m    438.1359u  
  500.00000p    899.5771m    438.9210u  
  510.00000p    899.5779m    439.7062u  
  520.00000p    899.5787m    440.4914u  
  530.00000p    899.5788m    440.6013u  
  540.00000p    899.5783m    440.0925u  
  550.00000p    899.5778m    439.5838u  
  560.00000p    899.5772m    439.0751u  
  570.00000p    899.5767m    438.5663u  
  580.00000p    899.5762m    438.0576u  
  590.00000p    899.5756m    437.5488u  
  600.00000p    899.5751m    437.0401u  
  610.00000p    899.5746m    436.5314u  
  620.00000p    899.5741m    436.0226u  
  630.00000p    899.5735m    435.5139u  
  640.00000p    899.5730m    435.0051u  
  650.00000p    899.5725m    434.4964u  
  660.00000p    899.5719m    433.9877u  
  670.00000p    899.5714m    433.4789u  
  680.00000p    899.5709m    432.9702u  
  690.00000p    899.5704m    432.4614u  
  700.00000p    899.5698m    431.9527u  
  710.00000p    899.5693m    431.4440u  
  720.00000p    899.5688m    430.9352u  
  730.00000p    899.5682m    430.4265u  
  740.00000p    899.5677m    429.9178u  
  750.00000p    899.5672m    429.4090u  
  760.00000p    899.5666m    428.9003u  
  770.00000p    899.5661m    428.3915u  
  780.00000p    899.5656m    427.8828u  
  790.00000p    899.5651m    427.3741u  
  800.00000p    899.5645m    426.8653u  
  810.00000p    899.5640m    426.3566u  
  820.00000p    899.5635m    425.8478u  
  830.00000p    899.5629m    425.3391u  
  840.00000p    899.5624m    424.8304u  
  850.00000p    899.5619m    424.3216u  
  860.00000p    899.5614m    423.8129u  
  870.00000p    899.5608m    423.3041u  
  880.00000p    899.5603m    422.7954u  
  890.00000p    899.5598m    422.2867u  
  900.00000p    899.5592m    421.7779u  
  910.00000p    899.5587m    421.2692u  
  920.00000p    899.5582m    420.7605u  
  930.00000p    899.5588m    421.3501u  
  940.00000p    899.5604m    422.9459u  
  950.00000p    899.5621m    424.5417u  
  960.00000p    899.5637m    426.1375u  
  970.00000p    899.5654m    427.7333u  
  980.00000p    899.5670m    429.3291u  
  990.00000p    899.5687m    430.9249u  
    1.00000n    899.5703m    432.5207u  
    1.01000n    899.5720m    434.1165u  
    1.02000n    899.5736m    435.7123u  
    1.03000n    899.5752m    437.3081u  
    1.04000n    899.5769m    438.9039u  
    1.05000n    899.5785m    440.4997u  
    1.06000n    891.4781m     -1.0683m  
    1.07000n    731.7441m     18.0272m  
    1.08000n    455.1572m    230.0478m  
    1.09000n     57.3747m    813.0585m  
    1.10000n     12.1543m    895.1806m  
    1.11000n    504.0096u    899.4164m  
    1.12000n    439.7479u    899.5400m  
    1.13000n    418.8541u    899.5766m  
    1.14000n    421.9892u    899.5697m  
    1.15000n    427.9271u    899.5578m  
    1.16000n    431.0569u    899.5517m  
    1.17000n    429.4393u    899.5551m  
    1.18000n    427.8218u    899.5586m  
    1.19000n    426.2042u    899.5620m  
    1.20000n    424.5866u    899.5655m  
    1.21000n    422.9690u    899.5689m  
    1.22000n    421.3514u    899.5724m  
    1.23000n    420.2670u    899.5747m  
    1.24000n    420.8450u    899.5734m  
    1.25000n    421.4230u    899.5722m  
    1.26000n    422.0010u    899.5709m  
    1.27000n    422.5790u    899.5697m  
    1.28000n    423.1570u    899.5684m  
    1.29000n    423.7350u    899.5671m  
    1.30000n    424.3130u    899.5659m  
    1.31000n    424.8910u    899.5646m  
    1.32000n    425.4691u    899.5633m  
    1.33000n    426.0471u    899.5621m  
    1.34000n    426.6251u    899.5608m  
    1.35000n    427.2031u    899.5595m  
    1.36000n    427.7811u    899.5583m  
    1.37000n    428.3591u    899.5570m  
    1.38000n    428.9371u    899.5558m  
    1.39000n    429.5151u    899.5545m  
    1.40000n    430.0931u    899.5532m  
    1.41000n    430.6521u    899.5520m  
    1.42000n    430.3649u    899.5526m  
    1.43000n    430.0778u    899.5533m  
    1.44000n    429.7907u    899.5539m  
    1.45000n    429.5036u    899.5545m  
    1.46000n    429.2165u    899.5552m  
    1.47000n    428.9294u    899.5558m  
    1.48000n    428.6423u    899.5564m  
    1.49000n    428.3551u    899.5571m  
    1.50000n    428.0680u    899.5577m  
    1.51000n    427.7809u    899.5583m  
    1.52000n    427.4938u    899.5590m  
    1.53000n    427.2067u    899.5596m  
    1.54000n    426.9196u    899.5602m  
    1.55000n    426.6325u    899.5609m  
    1.56000n    426.3453u    899.5615m  
    1.57000n    426.0582u    899.5621m  
    1.58000n    425.7711u    899.5628m  
    1.59000n    425.4840u    899.5634m  
    1.60000n    425.1969u    899.5640m  
    1.61000n    424.9098u    899.5647m  
    1.62000n    424.6227u    899.5653m  
    1.63000n    424.3355u    899.5659m  
    1.64000n    424.0484u    899.5666m  
    1.65000n    423.7613u    899.5672m  
    1.66000n    423.4742u    899.5678m  
    1.67000n    423.1871u    899.5685m  
    1.68000n    422.9000u    899.5691m  
    1.69000n    422.6129u    899.5697m  
    1.70000n    422.3257u    899.5704m  
    1.71000n    422.0386u    899.5710m  
    1.72000n    421.7515u    899.5716m  
    1.73000n    421.4644u    899.5723m  
    1.74000n    421.1773u    899.5729m  
    1.75000n    420.8902u    899.5735m  
    1.76000n    420.6031u    899.5742m  
    1.77000n    420.8144u    899.5737m  
    1.78000n    421.2286u    899.5728m  
    1.79000n    421.6428u    899.5719m  
    1.80000n    422.0569u    899.5709m  
    1.81000n    422.4711u    899.5700m  
    1.82000n    422.8853u    899.5691m  
    1.83000n    423.2994u    899.5682m  
    1.84000n    423.7136u    899.5673m  
    1.85000n    424.1278u    899.5663m  
    1.86000n    424.5420u    899.5654m  
    1.87000n    424.9561u    899.5645m  
    1.88000n    425.3703u    899.5636m  
    1.89000n    425.7845u    899.5627m  
    1.90000n    426.1987u    899.5617m  
    1.91000n    426.6128u    899.5608m  
    1.92000n    427.0270u    899.5599m  
    1.93000n    427.4412u    899.5590m  
    1.94000n    427.8554u    899.5581m  
    1.95000n    428.2695u    899.5571m  
    1.96000n    428.6837u    899.5562m  
    1.97000n    429.0979u    899.5553m  
    1.98000n    429.5120u    899.5544m  
    1.99000n    429.9262u    899.5534m  
    2.00000n    430.3404u    899.5525m  
    2.01000n     10.5560m    901.0100m  
    2.02000n     73.8684m    902.3952m  
    2.03000n    370.1100m    820.6677m  
    2.04000n    804.5672m    102.3318m  
    2.05000n    805.3268m   -510.9513m  
    2.06000n    905.6774m     -8.4263m  
    2.07000n    899.6833m    291.9909u  
    2.08000n    899.5319m    473.5756u  
    2.09000n    899.5677m    430.0458u  
    2.10000n    899.5684m    430.6493u  
    2.11000n    899.5684m    430.6480u  
    2.12000n    899.5684m    430.6480u  
    2.13000n    899.5684m    430.6480u  
    2.14000n    899.5684m    430.6480u  
    2.15000n    899.5684m    430.6480u  
    2.16000n    899.5684m    430.6480u  
    2.17000n    899.5684m    430.6480u  
    2.18000n    899.5684m    430.6480u  
    2.19000n    899.5684m    430.6480u  
    2.20000n    899.5684m    430.6480u  
    2.21000n    899.5684m    430.6480u  
    2.22000n    899.5684m    430.6480u  
    2.23000n    899.5684m    430.6480u  
    2.24000n    899.5684m    430.6480u  
    2.25000n    899.5684m    430.6480u  
    2.26000n    899.5684m    430.6480u  
    2.27000n    899.5684m    430.6480u  
    2.28000n    899.5684m    430.6480u  
    2.29000n    899.5684m    430.6480u  
    2.30000n    899.5684m    430.6480u  
    2.31000n    899.5684m    430.6480u  
    2.32000n    899.5684m    430.6480u  
    2.33000n    899.5684m    430.6480u  
    2.34000n    899.5684m    430.6480u  
    2.35000n    899.5684m    430.6480u  
    2.36000n    899.5684m    430.6480u  
    2.37000n    899.5684m    430.6480u  
    2.38000n    899.5684m    430.6480u  
    2.39000n    899.5684m    430.6480u  
    2.40000n    899.5684m    430.6480u  
    2.41000n    899.5684m    430.6480u  
    2.42000n    899.5684m    430.6480u  
    2.43000n    899.5684m    430.6480u  
    2.44000n    899.5684m    430.6480u  
    2.45000n    899.5684m    430.6480u  
    2.46000n    899.5684m    430.6480u  
    2.47000n    899.5684m    430.6480u  
    2.48000n    899.5684m    430.6480u  
    2.49000n    899.5684m    430.6480u  
    2.50000n    899.5684m    430.6480u  
    2.51000n    899.5684m    430.6480u  
    2.52000n    899.5684m    430.6480u  
    2.53000n    899.5684m    430.6480u  
    2.54000n    899.5684m    430.6480u  
    2.55000n    899.5684m    430.6480u  
    2.56000n    899.5684m    430.6480u  
    2.57000n    899.5684m    430.6480u  
    2.58000n    899.5684m    430.6480u  
    2.59000n    899.5684m    430.6480u  
    2.60000n    899.5684m    430.6480u  
    2.61000n    899.5684m    430.6480u  
    2.62000n    899.5684m    430.6480u  
    2.63000n    899.5684m    430.6480u  
    2.64000n    899.5684m    430.6480u  
    2.65000n    899.5684m    430.6480u  
    2.66000n    899.5684m    430.6480u  
    2.67000n    899.5684m    430.6480u  
    2.68000n    899.5684m    430.6480u  
    2.69000n    899.5684m    430.6480u  
    2.70000n    899.5684m    430.6480u  
    2.71000n    899.5684m    430.6480u  
    2.72000n    899.5684m    430.6480u  
    2.73000n    899.5684m    430.6480u  
    2.74000n    899.5684m    430.6480u  
    2.75000n    899.5684m    430.6480u  
    2.76000n    899.5684m    430.6480u  
    2.77000n    899.5684m    430.6480u  
    2.78000n    899.5684m    430.6480u  
    2.79000n    899.5684m    430.6480u  
    2.80000n    899.5684m    430.6480u  
    2.81000n    899.5684m    430.6480u  
    2.82000n    899.5684m    430.6480u  
    2.83000n    899.5684m    430.6480u  
    2.84000n    899.5684m    430.6480u  
    2.85000n    899.5684m    430.6480u  
    2.86000n    899.5684m    430.6480u  
    2.87000n    899.5684m    430.6480u  
    2.88000n    899.5684m    430.6480u  
    2.89000n    899.5684m    430.6480u  
    2.90000n    899.5684m    430.6480u  
    2.91000n    899.5684m    430.6480u  
    2.92000n    899.5684m    430.6480u  
    2.93000n    899.5684m    430.6480u  
    2.94000n    899.5684m    430.6480u  
    2.95000n    899.5684m    430.6480u  
    2.96000n    899.5684m    430.6480u  
    2.97000n    899.5684m    430.6480u  
    2.98000n    899.5684m    430.6480u  
    2.99000n    899.5684m    430.6480u  
    3.00000n    899.5684m    430.6480u  
    3.01000n    899.5684m    430.6480u  
    3.02000n    899.5684m    430.6480u  
    3.03000n    899.5684m    430.6480u  
    3.04000n    899.5684m    430.6480u  
    3.05000n    899.5684m    430.6480u  
    3.06000n    886.9457m     -1.0105m  
    3.07000n    804.1229m     -1.1984m  
    3.08000n    453.5886m    103.3647m  
    3.09000n     62.3342m    810.3661m  
    3.10000n     12.1586m    894.6158m  
    3.11000n    364.1237u    899.5803m  
    3.12000n    430.7840u    899.5621m  
    3.13000n    418.7142u    899.5673m  
    3.14000n    428.8061u    899.5605m  
    3.15000n    432.6093u    899.5581m  
    3.16000n    430.0796u    899.5600m  
    3.17000n    427.5499u    899.5619m  
    3.18000n    425.0202u    899.5638m  
    3.19000n    422.4905u    899.5658m  
    3.20000n    419.9608u    899.5677m  
    3.21000n    418.2861u    899.5689m  
    3.22000n    419.3608u    899.5681m  
    3.23000n    420.4355u    899.5672m  
    3.24000n    421.5101u    899.5664m  
    3.25000n    422.5848u    899.5655m  
    3.26000n    423.6594u    899.5647m  
    3.27000n    424.7341u    899.5638m  
    3.28000n    425.8088u    899.5630m  
    3.29000n    426.8834u    899.5621m  
    3.30000n    427.9581u    899.5613m  
    3.31000n    429.0328u    899.5604m  
    3.32000n    430.1074u    899.5596m  
    3.33000n    431.1821u    899.5587m  
    3.34000n    432.2568u    899.5579m  
    3.35000n    432.3297u    899.5578m  
    3.36000n    431.8214u    899.5582m  
    3.37000n    431.3132u    899.5586m  
    3.38000n    430.8049u    899.5590m  
    3.39000n    430.2967u    899.5595m  
    3.40000n    429.7884u    899.5599m  
    3.41000n    429.2801u    899.5603m  
    3.42000n    428.7719u    899.5607m  
    3.43000n    428.2636u    899.5611m  
    3.44000n    427.7554u    899.5615m  
    3.45000n    427.2471u    899.5619m  
    3.46000n    426.7389u    899.5623m  
    3.47000n    426.2306u    899.5628m  
    3.48000n    425.7223u    899.5632m  
    3.49000n    425.2141u    899.5636m  
    3.50000n    424.7058u    899.5640m  
    3.51000n    424.1976u    899.5644m  
    3.52000n    423.6893u    899.5648m  
    3.53000n    423.1810u    899.5652m  
    3.54000n    422.6728u    899.5656m  
    3.55000n    422.1645u    899.5660m  
    3.56000n    421.6563u    899.5665m  
    3.57000n    421.1480u    899.5669m  
    3.58000n    420.6397u    899.5673m  
    3.59000n    420.1315u    899.5677m  
    3.60000n    419.6232u    899.5681m  
    3.61000n    419.1150u    899.5685m  
    3.62000n    418.6067u    899.5689m  
    3.63000n    418.9058u    899.5687m  
    3.64000n    419.2694u    899.5684m  
    3.65000n    419.6329u    899.5681m  
    3.66000n    419.9964u    899.5678m  
    3.67000n    420.3600u    899.5675m  
    3.68000n    420.7235u    899.5672m  
    3.69000n    421.0870u    899.5669m  
    3.70000n    421.4506u    899.5666m  
    3.71000n    421.8141u    899.5663m  
    3.72000n    422.1776u    899.5660m  
    3.73000n    422.5412u    899.5657m  
    3.74000n    422.9047u    899.5654m  
    3.75000n    423.2682u    899.5651m  
    3.76000n    423.6318u    899.5648m  
    3.77000n    423.9953u    899.5645m  
    3.78000n    424.3588u    899.5642m  
    3.79000n    424.7224u    899.5639m  
    3.80000n    425.0859u    899.5636m  
    3.81000n    425.4494u    899.5633m  
    3.82000n    425.8130u    899.5630m  
    3.83000n    426.1765u    899.5627m  
    3.84000n    426.5400u    899.5624m  
    3.85000n    426.9036u    899.5621m  
    3.86000n    427.2671u    899.5618m  
    3.87000n    427.6306u    899.5615m  
    3.88000n    427.9942u    899.5612m  
    3.89000n    428.3577u    899.5609m  
    3.90000n    428.7212u    899.5606m  
    3.91000n    429.0848u    899.5603m  
    3.92000n    429.4483u    899.5600m  
    3.93000n    429.8118u    899.5597m  
    3.94000n    430.1754u    899.5594m  
    3.95000n    430.5389u    899.5591m  
    3.96000n    430.9024u    899.5588m  
    3.97000n    431.2659u    899.5585m  
    3.98000n    431.6295u    899.5583m  
    3.99000n    431.9930u    899.5580m  
    4.00000n    432.3565u    899.5577m  
    4.01000n     12.4633m    900.9278m  
    4.02000n     75.0163m    901.8214m  
    4.03000n    378.2520m    735.6132m  
    4.04000n    789.1828m    131.9811m  
    4.05000n    883.5046m      6.7422m  
    4.06000n    899.6626m    376.7301u  
    4.07000n    899.5219m    465.8770u  
    4.08000n    899.5764m    422.4564u  
    4.09000n    899.5669m    429.5191u  
    4.10000n    899.5685m    430.6751u  
    4.11000n    899.5684m    430.6480u  
    4.12000n    899.5684m    430.6480u  
    4.13000n    899.5684m    430.6480u  
    4.14000n    899.5684m    430.6480u  
    4.15000n    899.5684m    430.6480u  
    4.16000n    899.5684m    430.6480u  
    4.17000n    899.5684m    430.6480u  
    4.18000n    899.5684m    430.6480u  
    4.19000n    899.5684m    430.6480u  
    4.20000n    899.5684m    430.6480u  
    4.21000n    899.5684m    430.6480u  
    4.22000n    899.5684m    430.6480u  
    4.23000n    899.5684m    430.6480u  
    4.24000n    899.5684m    430.6480u  
    4.25000n    899.5684m    430.6480u  
    4.26000n    899.5684m    430.6480u  
    4.27000n    899.5684m    430.6480u  
    4.28000n    899.5684m    430.6480u  
    4.29000n    899.5684m    430.6480u  
    4.30000n    899.5684m    430.6480u  
    4.31000n    899.5684m    430.6480u  
    4.32000n    899.5684m    430.6480u  
    4.33000n    899.5684m    430.6480u  
    4.34000n    899.5684m    430.6480u  
    4.35000n    899.5684m    430.6480u  
    4.36000n    899.5684m    430.6480u  
    4.37000n    899.5684m    430.6480u  
    4.38000n    899.5684m    430.6480u  
    4.39000n    899.5684m    430.6480u  
    4.40000n    899.5684m    430.6480u  
    4.41000n    899.5684m    430.6480u  
    4.42000n    899.5684m    430.6480u  
    4.43000n    899.5684m    430.6480u  
    4.44000n    899.5684m    430.6480u  
    4.45000n    899.5684m    430.6480u  
    4.46000n    899.5684m    430.6480u  
    4.47000n    899.5684m    430.6480u  
    4.48000n    899.5684m    430.6480u  
    4.49000n    899.5684m    430.6480u  
    4.50000n    899.5684m    430.6480u  
    4.51000n    899.5684m    430.6480u  
    4.52000n    899.5684m    430.6480u  
    4.53000n    899.5684m    430.6480u  
    4.54000n    899.5684m    430.6480u  
    4.55000n    899.5684m    430.6480u  
    4.56000n    899.5684m    430.6480u  
    4.57000n    899.5684m    430.6480u  
    4.58000n    899.5684m    430.6480u  
    4.59000n    899.5684m    430.6480u  
    4.60000n    899.5684m    430.6480u  
    4.61000n    899.5684m    430.6480u  
    4.62000n    899.5684m    430.6480u  
    4.63000n    899.5684m    430.6480u  
    4.64000n    899.5684m    430.6480u  
    4.65000n    899.5684m    430.6480u  
    4.66000n    899.5684m    430.6480u  
    4.67000n    899.5684m    430.6480u  
    4.68000n    899.5684m    430.6480u  
    4.69000n    899.5684m    430.6480u  
    4.70000n    899.5684m    430.6480u  
    4.71000n    899.5684m    430.6480u  
    4.72000n    899.5684m    430.6480u  
    4.73000n    899.5684m    430.6480u  
    4.74000n    899.5684m    430.6480u  
    4.75000n    899.5684m    430.6480u  
    4.76000n    899.5684m    430.6480u  
    4.77000n    899.5684m    430.6480u  
    4.78000n    899.5684m    430.6480u  
    4.79000n    899.5684m    430.6480u  
    4.80000n    899.5684m    430.6480u  
    4.81000n    899.5684m    430.6480u  
    4.82000n    899.5684m    430.6480u  
    4.83000n    899.5684m    430.6480u  
    4.84000n    899.5684m    430.6480u  
    4.85000n    899.5684m    430.6480u  
    4.86000n    899.5684m    430.6480u  
    4.87000n    899.5684m    430.6480u  
    4.88000n    899.5684m    430.6480u  
    4.89000n    899.5684m    430.6480u  
    4.90000n    899.5684m    430.6480u  
    4.91000n    899.5684m    430.6480u  
    4.92000n    899.5684m    430.6480u  
    4.93000n    899.5684m    430.6480u  
    4.94000n    899.5684m    430.6480u  
    4.95000n    899.5684m    430.6480u  
    4.96000n    899.5684m    430.6480u  
    4.97000n    899.5684m    430.6480u  
    4.98000n    899.5684m    430.6480u  
    4.99000n    899.5684m    430.6480u  
    5.00000n    899.5684m    430.6480u  
    5.01000n    899.5684m    430.6480u  
    5.02000n    899.5684m    430.6480u  
    5.03000n    899.5684m    430.6480u  
    5.04000n    899.5684m    430.6480u  
    5.05000n    899.5684m    430.6480u  
    5.06000n    892.3946m     -1.0547m  
    5.07000n    777.0943m      4.6069m  
    5.08000n    439.3715m    135.4822m  
    5.09000n     60.1549m    811.9633m  
    5.10000n     12.2347m    895.4831m  
    5.11000n    383.7624u    899.5713m  
    5.12000n    447.0108u    899.5451m  
    5.13000n    409.1567u    899.5754m  
    5.14000n    422.2095u    899.5661m  
    5.15000n    435.2623u    899.5569m  
    5.16000n    435.3374u    899.5567m  
    5.17000n    431.6577u    899.5591m  
    5.18000n    427.9779u    899.5615m  
    5.19000n    424.2982u    899.5639m  
    5.20000n    420.6184u    899.5664m  
    5.21000n    416.9387u    899.5688m  
    5.22000n    414.5636u    899.5704m  
    5.23000n    415.9456u    899.5695m  
    5.24000n    417.3276u    899.5686m  
    5.25000n    418.7095u    899.5677m  
    5.26000n    420.0915u    899.5668m  
    5.27000n    421.4734u    899.5659m  
    5.28000n    422.8554u    899.5651m  
    5.29000n    424.2373u    899.5642m  
    5.30000n    425.6193u    899.5633m  
    5.31000n    427.0012u    899.5624m  
    5.32000n    428.3832u    899.5615m  
    5.33000n    429.7651u    899.5606m  
    5.34000n    431.1471u    899.5598m  
    5.35000n    432.5290u    899.5589m  
    5.36000n    433.9110u    899.5580m  
    5.37000n    435.2929u    899.5571m  
    5.38000n    436.1680u    899.5565m  
    5.39000n    435.4864u    899.5570m  
    5.40000n    434.8049u    899.5574m  
    5.41000n    434.1233u    899.5578m  
    5.42000n    433.4417u    899.5583m  
    5.43000n    432.7601u    899.5587m  
    5.44000n    432.0785u    899.5591m  
    5.45000n    431.3969u    899.5595m  
    5.46000n    430.7153u    899.5600m  
    5.47000n    430.0337u    899.5604m  
    5.48000n    429.3521u    899.5608m  
    5.49000n    428.6705u    899.5613m  
    5.50000n    427.9889u    899.5617m  
    5.51000n    427.3073u    899.5621m  
    5.52000n    426.6257u    899.5626m  
    5.53000n    425.9441u    899.5630m  
    5.54000n    425.2625u    899.5634m  
    5.55000n    424.5809u    899.5639m  
    5.56000n    423.8993u    899.5643m  
    5.57000n    423.2177u    899.5647m  
    5.58000n    422.5361u    899.5651m  
    5.59000n    421.8545u    899.5656m  
    5.60000n    421.1729u    899.5660m  
    5.61000n    420.4913u    899.5664m  
    5.62000n    419.8097u    899.5669m  
    5.63000n    419.1282u    899.5673m  
    5.64000n    418.4466u    899.5677m  
    5.65000n    417.7650u    899.5682m  
    5.66000n    417.0834u    899.5686m  
    5.67000n    416.4018u    899.5690m  
    5.68000n    415.7202u    899.5694m  
    5.69000n    415.0386u    899.5699m  
    5.70000n    415.5599u    899.5696m  
    5.71000n    416.2360u    899.5691m  
    5.72000n    416.9120u    899.5687m  
    5.73000n    417.5881u    899.5683m  
    5.74000n    418.2642u    899.5679m  
    5.75000n    418.9402u    899.5674m  
    5.76000n    419.6163u    899.5670m  
    5.77000n    420.2924u    899.5666m  
    5.78000n    420.9684u    899.5662m  
    5.79000n    421.6445u    899.5657m  
    5.80000n    422.3206u    899.5653m  
    5.81000n    422.9966u    899.5649m  
    5.82000n    423.6727u    899.5645m  
    5.83000n    424.3488u    899.5641m  
    5.84000n    425.0248u    899.5636m  
    5.85000n    425.7009u    899.5632m  
    5.86000n    426.3770u    899.5628m  
    5.87000n    427.0530u    899.5624m  
    5.88000n    427.7291u    899.5619m  
    5.89000n    428.4052u    899.5615m  
    5.90000n    429.0812u    899.5611m  
    5.91000n    429.7573u    899.5607m  
    5.92000n    430.4334u    899.5602m  
    5.93000n    431.1094u    899.5598m  
    5.94000n    431.7855u    899.5594m  
    5.95000n    432.4616u    899.5590m  
    5.96000n    433.1376u    899.5586m  
    5.97000n    433.8137u    899.5581m  
    5.98000n    434.4898u    899.5577m  
    5.99000n    435.1658u    899.5573m  
    6.00000n    435.8419u    899.5569m  
    6.01000n     11.6140m    900.9707m  
    6.02000n     74.7794m    902.0807m  
    6.03000n    386.0194m    800.9157m  
    6.04000n    795.8971m    114.0701m  
    6.05000n    871.2735m     -1.8650   
    6.06000n    937.1159m    -40.8691m  
    6.07000n    900.1228m   -254.5619u  
    6.08000n    899.5469m    476.0419u  
    6.09000n    899.5602m    412.5063u  
    6.10000n    899.5684m    430.6446u  
    6.11000n    899.5684m    430.6480u  
    6.12000n    899.5684m    430.6480u  
    6.13000n    899.5684m    430.6480u  
    6.14000n    899.5684m    430.6480u  
    6.15000n    899.5684m    430.6480u  
    6.16000n    899.5684m    430.6480u  
    6.17000n    899.5684m    430.6480u  
    6.18000n    899.5684m    430.6480u  
    6.19000n    899.5684m    430.6480u  
    6.20000n    899.5684m    430.6480u  
    6.21000n    899.5684m    430.6480u  
    6.22000n    899.5684m    430.6480u  
    6.23000n    899.5684m    430.6480u  
    6.24000n    899.5684m    430.6480u  
    6.25000n    899.5684m    430.6480u  
    6.26000n    899.5684m    430.6480u  
    6.27000n    899.5684m    430.6480u  
    6.28000n    899.5684m    430.6480u  
    6.29000n    899.5684m    430.6480u  
    6.30000n    899.5684m    430.6480u  
    6.31000n    899.5684m    430.6480u  
    6.32000n    899.5684m    430.6480u  
    6.33000n    899.5684m    430.6480u  
    6.34000n    899.5684m    430.6480u  
    6.35000n    899.5684m    430.6480u  
    6.36000n    899.5684m    430.6480u  
    6.37000n    899.5684m    430.6480u  
    6.38000n    899.5684m    430.6480u  
    6.39000n    899.5684m    430.6480u  
    6.40000n    899.5684m    430.6480u  
    6.41000n    899.5684m    430.6480u  
    6.42000n    899.5684m    430.6480u  
    6.43000n    899.5684m    430.6480u  
    6.44000n    899.5684m    430.6480u  
    6.45000n    899.5684m    430.6480u  
    6.46000n    899.5684m    430.6480u  
    6.47000n    899.5684m    430.6480u  
    6.48000n    899.5684m    430.6480u  
    6.49000n    899.5684m    430.6480u  
    6.50000n    899.5684m    430.6480u  
    6.51000n    899.5684m    430.6480u  
    6.52000n    899.5684m    430.6480u  
    6.53000n    899.5684m    430.6480u  
    6.54000n    899.5684m    430.6480u  
    6.55000n    899.5684m    430.6480u  
    6.56000n    899.5684m    430.6480u  
    6.57000n    899.5684m    430.6480u  
    6.58000n    899.5684m    430.6480u  
    6.59000n    899.5684m    430.6480u  
    6.60000n    899.5684m    430.6480u  
    6.61000n    899.5684m    430.6480u  
    6.62000n    899.5684m    430.6480u  
    6.63000n    899.5684m    430.6480u  
    6.64000n    899.5684m    430.6480u  
    6.65000n    899.5684m    430.6480u  
    6.66000n    899.5684m    430.6480u  
    6.67000n    899.5684m    430.6480u  
    6.68000n    899.5684m    430.6480u  
    6.69000n    899.5684m    430.6480u  
    6.70000n    899.5684m    430.6480u  
    6.71000n    899.5684m    430.6480u  
    6.72000n    899.5684m    430.6480u  
    6.73000n    899.5684m    430.6480u  
    6.74000n    899.5684m    430.6480u  
    6.75000n    899.5684m    430.6480u  
    6.76000n    899.5684m    430.6480u  
    6.77000n    899.5684m    430.6480u  
    6.78000n    899.5684m    430.6480u  
    6.79000n    899.5684m    430.6480u  
    6.80000n    899.5684m    430.6480u  
    6.81000n    899.5684m    430.6480u  
    6.82000n    899.5684m    430.6480u  
    6.83000n    899.5684m    430.6480u  
    6.84000n    899.5684m    430.6480u  
    6.85000n    899.5684m    430.6480u  
    6.86000n    899.5684m    430.6480u  
    6.87000n    899.5684m    430.6480u  
    6.88000n    899.5684m    430.6480u  
    6.89000n    899.5684m    430.6480u  
    6.90000n    899.5684m    430.6480u  
    6.91000n    899.5684m    430.6480u  
    6.92000n    899.5684m    430.6480u  
    6.93000n    899.5684m    430.6480u  
    6.94000n    899.5684m    430.6480u  
    6.95000n    899.5684m    430.6480u  
    6.96000n    899.5684m    430.6480u  
    6.97000n    899.5684m    430.6480u  
    6.98000n    899.5684m    430.6480u  
    6.99000n    899.5684m    430.6480u  
    7.00000n    899.5684m    430.6480u  
    7.01000n    899.5684m    430.6480u  
    7.02000n    899.5684m    430.6480u  
    7.03000n    899.5684m    430.6480u  
    7.04000n    899.5684m    430.6480u  
    7.05000n    899.5684m    430.6480u  
    7.06000n    886.2666m   -984.6712u  
    7.07000n    803.6433m   -922.5039u  
    7.08000n    455.0679m     82.0000m  
    7.09000n     61.8220m    808.7597m  
    7.10000n     89.8320m      1.5103   
    7.11000n     -7.6962m    918.2915m  
    7.12000n    279.6705u    899.8660m  
    7.13000n    423.4640u    899.5627m  
    7.14000n    425.7971u    899.5644m  
    7.15000n    427.2035u    899.5646m  
    7.16000n    426.0079u    899.5635m  
    7.17000n    424.8124u    899.5623m  
    7.18000n    423.6169u    899.5612m  
    7.19000n    423.8109u    899.5614m  
    7.20000n    424.1662u    899.5618m  
    7.21000n    424.5215u    899.5622m  
    7.22000n    424.8768u    899.5626m  
    7.23000n    425.2320u    899.5630m  
    7.24000n    425.5873u    899.5634m  
    7.25000n    425.9426u    899.5638m  
    7.26000n    426.2979u    899.5642m  
    7.27000n    426.6531u    899.5646m  
    7.28000n    427.0084u    899.5650m  
    7.29000n    427.3637u    899.5654m  
    7.30000n    427.4652u    899.5655m  
    7.31000n    427.3430u    899.5654m  
    7.32000n    427.2207u    899.5652m  
    7.33000n    427.0985u    899.5651m  
    7.34000n    426.9763u    899.5649m  
    7.35000n    426.8541u    899.5648m  
    7.36000n    426.7318u    899.5647m  
    7.37000n    426.6096u    899.5645m  
    7.38000n    426.4874u    899.5644m  
    7.39000n    426.3652u    899.5642m  
    7.40000n    426.2429u    899.5641m  
    7.41000n    426.1207u    899.5639m  
    7.42000n    425.9985u    899.5638m  
    7.43000n    425.8763u    899.5637m  
    7.44000n    425.7540u    899.5635m  
    7.45000n    425.6318u    899.5634m  
    7.46000n    425.5096u    899.5632m  
    7.47000n    425.3874u    899.5631m  
    7.48000n    425.2651u    899.5629m  
    7.49000n    425.1429u    899.5628m  
    7.50000n    425.0207u    899.5627m  
    7.51000n    424.8985u    899.5625m  
    7.52000n    424.7762u    899.5624m  
    7.53000n    424.6540u    899.5622m  
    7.54000n    424.5318u    899.5621m  
    7.55000n    424.4096u    899.5619m  
    7.56000n    424.2873u    899.5618m  
    7.57000n    424.1651u    899.5617m  
    7.58000n    424.0429u    899.5615m  
    7.59000n    423.9207u    899.5614m  
    7.60000n    423.7984u    899.5612m  
    7.61000n    423.6762u    899.5611m  
    7.62000n    423.5540u    899.5609m  
    7.63000n    423.6479u    899.5611m  
    7.64000n    423.7522u    899.5612m  
    7.65000n    423.8564u    899.5613m  
    7.66000n    423.9607u    899.5614m  
    7.67000n    424.0649u    899.5615m  
    7.68000n    424.1691u    899.5617m  
    7.69000n    424.2734u    899.5618m  
    7.70000n    424.3776u    899.5619m  
    7.71000n    424.4819u    899.5620m  
    7.72000n    424.5861u    899.5622m  
    7.73000n    424.6904u    899.5623m  
    7.74000n    424.7946u    899.5624m  
    7.75000n    424.8988u    899.5625m  
    7.76000n    425.0031u    899.5627m  
    7.77000n    425.1073u    899.5628m  
    7.78000n    425.2116u    899.5629m  
    7.79000n    425.3158u    899.5630m  
    7.80000n    425.4201u    899.5632m  
    7.81000n    425.5243u    899.5633m  
    7.82000n    425.6286u    899.5634m  
    7.83000n    425.7328u    899.5635m  
    7.84000n    425.8370u    899.5637m  
    7.85000n    425.9413u    899.5638m  
    7.86000n    426.0455u    899.5639m  
    7.87000n    426.1498u    899.5640m  
    7.88000n    426.2540u    899.5642m  
    7.89000n    426.3583u    899.5643m  
    7.90000n    426.4625u    899.5644m  
    7.91000n    426.5667u    899.5645m  
    7.92000n    426.6710u    899.5647m  
    7.93000n    426.7752u    899.5648m  
    7.94000n    426.8795u    899.5649m  
    7.95000n    426.9837u    899.5650m  
    7.96000n    427.0880u    899.5652m  
    7.97000n    427.1922u    899.5653m  
    7.98000n    427.2965u    899.5654m  
    7.99000n    427.4007u    899.5655m  
    8.00000n    427.5049u    899.5657m  
y
x

        time    voltage      voltage    
                 outin_10     outin_20  
    0.          899.5633m    430.7096u  
   10.00000p    901.1137m    600.8204u  
   20.00000p    885.8968m   -109.4400u  
   30.00000p    770.8031m     26.8687m  
   40.00000p    111.2092m    593.7465m  
   50.00000p      5.1232m    893.6732m  
   60.00000p    519.7241u    899.4269m  
   70.00000p    434.9022u    899.5667m  
   80.00000p    431.8974u    899.5625m  
   90.00000p    420.3611u    899.5609m  
  100.00000p    424.9014u    899.5620m  
  110.00000p    429.4417u    899.5631m  
  120.00000p    433.9819u    899.5642m  
  130.00000p    438.5222u    899.5653m  
  140.00000p    440.6452u    899.5659m  
  150.00000p    438.9870u    899.5654m  
  160.00000p    437.3288u    899.5650m  
  170.00000p    435.6706u    899.5645m  
  180.00000p    434.0124u    899.5641m  
  190.00000p    432.3542u    899.5636m  
  200.00000p    430.6960u    899.5632m  
  210.00000p    429.0378u    899.5627m  
  220.00000p    427.3796u    899.5623m  
  230.00000p    425.7214u    899.5618m  
  240.00000p    424.0632u    899.5614m  
  250.00000p    422.4050u    899.5609m  
  260.00000p    420.7468u    899.5605m  
  270.00000p    420.8619u    899.5605m  
  280.00000p    421.6471u    899.5607m  
  290.00000p    422.4322u    899.5609m  
  300.00000p    423.2174u    899.5612m  
  310.00000p    424.0026u    899.5614m  
  320.00000p    424.7878u    899.5616m  
  330.00000p    425.5730u    899.5618m  
  340.00000p    426.3581u    899.5620m  
  350.00000p    427.1433u    899.5623m  
  360.00000p    427.9285u    899.5625m  
  370.00000p    428.7137u    899.5627m  
  380.00000p    429.4989u    899.5629m  
  390.00000p    430.2840u    899.5631m  
  400.00000p    431.0692u    899.5634m  
  410.00000p    431.8544u    899.5636m  
  420.00000p    432.6396u    899.5638m  
  430.00000p    433.4248u    899.5640m  
  440.00000p    434.2100u    899.5642m  
  450.00000p    434.9951u    899.5645m  
  460.00000p    435.7803u    899.5647m  
  470.00000p    436.5655u    899.5649m  
  480.00000p    437.3507u    899.5651m  
  490.00000p    438.1359u    899.5654m  
  500.00000p    438.9210u    899.5656m  
  510.00000p    439.7062u    899.5658m  
  520.00000p    440.4914u    899.5660m  
  530.00000p    440.6013u    899.5660m  
  540.00000p    440.0925u    899.5659m  
  550.00000p    439.5838u    899.5658m  
  560.00000p    439.0751u    899.5656m  
  570.00000p    438.5663u    899.5655m  
  580.00000p    438.0576u    899.5653m  
  590.00000p    437.5488u    899.5652m  
  600.00000p    437.0401u    899.5650m  
  610.00000p    436.5314u    899.5649m  
  620.00000p    436.0226u    899.5647m  
  630.00000p    435.5139u    899.5646m  
  640.00000p    435.0051u    899.5644m  
  650.00000p    434.4964u    899.5643m  
  660.00000p    433.9877u    899.5641m  
  670.00000p    433.4789u    899.5640m  
  680.00000p    432.9702u    899.5639m  
  690.00000p    432.4614u    899.5637m  
  700.00000p    431.9527u    899.5636m  
  710.00000p    431.4440u    899.5634m  
  720.00000p    430.9352u    899.5633m  
  730.00000p    430.4265u    899.5631m  
  740.00000p    429.9178u    899.5630m  
  750.00000p    429.4090u    899.5628m  
  760.00000p    428.9003u    899.5627m  
  770.00000p    428.3915u    899.5625m  
  780.00000p    427.8828u    899.5624m  
  790.00000p    427.3741u    899.5622m  
  800.00000p    426.8653u    899.5621m  
  810.00000p    426.3566u    899.5620m  
  820.00000p    425.8478u    899.5618m  
  830.00000p    425.3391u    899.5617m  
  840.00000p    424.8304u    899.5615m  
  850.00000p    424.3216u    899.5614m  
  860.00000p    423.8129u    899.5612m  
  870.00000p    423.3041u    899.5611m  
  880.00000p    422.7954u    899.5609m  
  890.00000p    422.2867u    899.5608m  
  900.00000p    421.7779u    899.5606m  
  910.00000p    421.2692u    899.5605m  
  920.00000p    420.7605u    899.5604m  
  930.00000p    421.3501u    899.5605m  
  940.00000p    422.9459u    899.5610m  
  950.00000p    424.5417u    899.5615m  
  960.00000p    426.1375u    899.5619m  
  970.00000p    427.7333u    899.5624m  
  980.00000p    429.3291u    899.5629m  
  990.00000p    430.9249u    899.5634m  
    1.00000n    432.5207u    899.5638m  
    1.01000n    434.1165u    899.5643m  
    1.02000n    435.7123u    899.5648m  
    1.03000n    437.3081u    899.5652m  
    1.04000n    438.9039u    899.5657m  
    1.05000n    440.4997u    899.5662m  
    1.06000n     -1.0683m    899.3098m  
    1.07000n     18.0272m    900.6616m  
    1.08000n    230.0478m    800.4050m  
    1.09000n    813.0585m    275.0025m  
    1.10000n    895.1806m      3.1704m  
    1.11000n    899.4164m    538.5026u  
    1.12000n    899.5400m    420.4116u  
    1.13000n    899.5766m    436.9571u  
    1.14000n    899.5697m    433.7674u  
    1.15000n    899.5578m    428.2757u  
    1.16000n    899.5517m    425.4044u  
    1.17000n    899.5551m    426.9630u  
    1.18000n    899.5586m    428.5216u  
    1.19000n    899.5620m    430.0802u  
    1.20000n    899.5655m    431.6389u  
    1.21000n    899.5689m    433.1975u  
    1.22000n    899.5724m    434.7561u  
    1.23000n    899.5747m    435.8002u  
    1.24000n    899.5734m    435.2399u  
    1.25000n    899.5722m    434.6797u  
    1.26000n    899.5709m    434.1194u  
    1.27000n    899.5697m    433.5591u  
    1.28000n    899.5684m    432.9988u  
    1.29000n    899.5671m    432.4386u  
    1.30000n    899.5659m    431.8783u  
    1.31000n    899.5646m    431.3180u  
    1.32000n    899.5633m    430.7578u  
    1.33000n    899.5621m    430.1975u  
    1.34000n    899.5608m    429.6372u  
    1.35000n    899.5595m    429.0770u  
    1.36000n    899.5583m    428.5167u  
    1.37000n    899.5570m    427.9564u  
    1.38000n    899.5558m    427.3961u  
    1.39000n    899.5545m    426.8359u  
    1.40000n    899.5532m    426.2756u  
    1.41000n    899.5520m    425.7338u  
    1.42000n    899.5526m    426.0125u  
    1.43000n    899.5533m    426.2911u  
    1.44000n    899.5539m    426.5698u  
    1.45000n    899.5545m    426.8485u  
    1.46000n    899.5552m    427.1271u  
    1.47000n    899.5558m    427.4058u  
    1.48000n    899.5564m    427.6845u  
    1.49000n    899.5571m    427.9631u  
    1.50000n    899.5577m    428.2418u  
    1.51000n    899.5583m    428.5205u  
    1.52000n    899.5590m    428.7991u  
    1.53000n    899.5596m    429.0778u  
    1.54000n    899.5602m    429.3565u  
    1.55000n    899.5609m    429.6351u  
    1.56000n    899.5615m    429.9138u  
    1.57000n    899.5621m    430.1925u  
    1.58000n    899.5628m    430.4711u  
    1.59000n    899.5634m    430.7498u  
    1.60000n    899.5640m    431.0285u  
    1.61000n    899.5647m    431.3071u  
    1.62000n    899.5653m    431.5858u  
    1.63000n    899.5659m    431.8645u  
    1.64000n    899.5666m    432.1431u  
    1.65000n    899.5672m    432.4218u  
    1.66000n    899.5678m    432.7005u  
    1.67000n    899.5685m    432.9791u  
    1.68000n    899.5691m    433.2578u  
    1.69000n    899.5697m    433.5364u  
    1.70000n    899.5704m    433.8151u  
    1.71000n    899.5710m    434.0938u  
    1.72000n    899.5716m    434.3724u  
    1.73000n    899.5723m    434.6511u  
    1.74000n    899.5729m    434.9298u  
    1.75000n    899.5735m    435.2084u  
    1.76000n    899.5742m    435.4871u  
    1.77000n    899.5737m    435.2818u  
    1.78000n    899.5728m    434.8797u  
    1.79000n    899.5719m    434.4775u  
    1.80000n    899.5709m    434.0754u  
    1.81000n    899.5700m    433.6732u  
    1.82000n    899.5691m    433.2711u  
    1.83000n    899.5682m    432.8689u  
    1.84000n    899.5673m    432.4667u  
    1.85000n    899.5663m    432.0646u  
    1.86000n    899.5654m    431.6624u  
    1.87000n    899.5645m    431.2603u  
    1.88000n    899.5636m    430.8581u  
    1.89000n    899.5627m    430.4559u  
    1.90000n    899.5617m    430.0538u  
    1.91000n    899.5608m    429.6516u  
    1.92000n    899.5599m    429.2495u  
    1.93000n    899.5590m    428.8473u  
    1.94000n    899.5581m    428.4451u  
    1.95000n    899.5571m    428.0430u  
    1.96000n    899.5562m    427.6408u  
    1.97000n    899.5553m    427.2387u  
    1.98000n    899.5544m    426.8365u  
    1.99000n    899.5534m    426.4343u  
    2.00000n    899.5525m    426.0322u  
    2.01000n    901.0100m    598.9747u  
    2.02000n    902.3952m    403.4609u  
    2.03000n    820.6677m     -2.1281m  
    2.04000n    102.3318m    497.4926m  
    2.05000n   -510.9513m      2.3358   
    2.06000n     -8.4263m    911.4657m  
    2.07000n    291.9909u    899.7333m  
    2.08000n    473.5756u    899.5103m  
    2.09000n    430.0458u    899.5643m  
    2.10000n    430.6493u    899.5632m  
    2.11000n    430.6480u    899.5632m  
    2.12000n    430.6480u    899.5632m  
    2.13000n    430.6480u    899.5632m  
    2.14000n    430.6480u    899.5632m  
    2.15000n    430.6480u    899.5632m  
    2.16000n    430.6480u    899.5632m  
    2.17000n    430.6480u    899.5632m  
    2.18000n    430.6480u    899.5632m  
    2.19000n    430.6480u    899.5632m  
    2.20000n    430.6480u    899.5632m  
    2.21000n    430.6480u    899.5632m  
    2.22000n    430.6480u    899.5632m  
    2.23000n    430.6480u    899.5632m  
    2.24000n    430.6480u    899.5632m  
    2.25000n    430.6480u    899.5632m  
    2.26000n    430.6480u    899.5632m  
    2.27000n    430.6480u    899.5632m  
    2.28000n    430.6480u    899.5632m  
    2.29000n    430.6480u    899.5632m  
    2.30000n    430.6480u    899.5632m  
    2.31000n    430.6480u    899.5632m  
    2.32000n    430.6480u    899.5632m  
    2.33000n    430.6480u    899.5632m  
    2.34000n    430.6480u    899.5632m  
    2.35000n    430.6480u    899.5632m  
    2.36000n    430.6480u    899.5632m  
    2.37000n    430.6480u    899.5632m  
    2.38000n    430.6480u    899.5632m  
    2.39000n    430.6480u    899.5632m  
    2.40000n    430.6480u    899.5632m  
    2.41000n    430.6480u    899.5632m  
    2.42000n    430.6480u    899.5632m  
    2.43000n    430.6480u    899.5632m  
    2.44000n    430.6480u    899.5632m  
    2.45000n    430.6480u    899.5632m  
    2.46000n    430.6480u    899.5632m  
[...]
    3.68000n    899.5632m    430.7095u  
    3.69000n    899.5632m    430.7095u  
    3.70000n    899.5632m    430.7095u  
    3.71000n    899.5632m    430.7095u  
    3.72000n    899.5632m    430.7095u  
    3.73000n    899.5632m    430.7095u  
    3.74000n    899.5632m    430.7095u  
    3.75000n    899.5632m    430.7095u  
    3.76000n    899.5632m    430.7095u  
    3.77000n    899.5632m    430.7095u  
    3.78000n    899.5632m    430.7095u  
    3.79000n    899.5632m    430.7095u  
    3.80000n    899.5632m    430.7095u  
    3.81000n    899.5632m    430.7095u  
    3.82000n    899.5632m    430.7095u  
    3.83000n    899.5632m    430.7095u  
    3.84000n    899.5632m    430.7095u  
    3.85000n    899.5632m    430.7095u  
    3.86000n    899.5632m    430.7095u  
    3.87000n    899.5632m    430.7095u  
    3.88000n    899.5632m    430.7095u  
    3.89000n    899.5632m    430.7095u  
    3.90000n    899.5632m    430.7095u  
    3.91000n    899.5632m    430.7095u  
    3.92000n    899.5632m    430.7095u  
    3.93000n    899.5632m    430.7095u  
    3.94000n    899.5632m    430.7095u  
    3.95000n    899.5632m    430.7095u  
    3.96000n    899.5632m    430.7095u  
    3.97000n    899.5632m    430.7095u  
    3.98000n    899.5632m    430.7095u  
    3.99000n    899.5632m    430.7095u  
    4.00000n    899.5632m    430.7095u  
    4.01000n    899.5632m    430.7095u  
    4.02000n    899.5632m    430.7095u  
    4.03000n    899.5632m    430.7095u  
    4.04000n    899.5632m    430.7095u  
    4.05000n    899.5632m    430.7095u  
    4.06000n    899.2956m    463.7615u  
    4.07000n    900.3562m    493.6543u  
    4.08000n    849.4072m    648.1611u  
    4.09000n    260.9757m    548.9827m  
    4.10000n     15.8930m    876.1924m  
    4.11000n    -29.1364m    908.8034m  
    4.12000n   -134.4704u    899.7724m  
    4.13000n    423.3675u    899.5434m  
    4.14000n    446.5258u    899.5892m  
    4.15000n    422.5522u    899.5521m  
    4.16000n    410.2452u    899.5329m  
    4.17000n    420.1243u    899.5474m  
    4.18000n    430.0034u    899.5620m  
    4.19000n    439.8825u    899.5766m  
    4.20000n    449.7616u    899.5912m  
    4.21000n    452.5544u    899.5953m  
    4.22000n    448.4872u    899.5894m  
    4.23000n    444.4200u    899.5835m  
    4.24000n    440.3528u    899.5776m  
    4.25000n    436.2856u    899.5717m  
    4.26000n    432.2184u    899.5657m  
    4.27000n    428.1512u    899.5598m  
    4.28000n    424.0840u    899.5539m  
    4.29000n    420.0168u    899.5480m  
    4.30000n    415.9496u    899.5421m  
    4.31000n    411.8824u    899.5361m  
    4.32000n    407.8152u    899.5302m  
    4.33000n    408.3872u    899.5310m  
    4.34000n    410.5087u    899.5341m  
    4.35000n    412.6301u    899.5372m  
    4.36000n    414.7516u    899.5403m  
    4.37000n    416.8730u    899.5433m  
    4.38000n    418.9945u    899.5464m  
    4.39000n    421.1159u    899.5495m  
    4.40000n    423.2374u    899.5525m  
    4.41000n    425.3588u    899.5556m  
    4.42000n    427.4803u    899.5587m  
    4.43000n    429.6017u    899.5618m  
    4.44000n    431.7232u    899.5648m  
    4.45000n    433.8446u    899.5679m  
    4.46000n    435.9661u    899.5710m  
    4.47000n    438.0876u    899.5740m  
    4.48000n    440.2090u    899.5771m  
    4.49000n    442.3305u    899.5802m  
    4.50000n    444.4519u    899.5833m  
    4.51000n    446.5734u    899.5863m  
    4.52000n    448.6948u    899.5894m  
    4.53000n    450.8163u    899.5925m  
    4.54000n    452.9377u    899.5955m  
    4.55000n    454.3683u    899.5976m  
    4.56000n    453.1730u    899.5959m  
    4.57000n    451.9777u    899.5942m  
    4.58000n    450.7824u    899.5924m  
    4.59000n    449.5872u    899.5907m  
    4.60000n    448.3919u    899.5890m  
    4.61000n    447.1966u    899.5873m  
    4.62000n    446.0013u    899.5855m  
    4.63000n    444.8060u    899.5838m  
    4.64000n    443.6107u    899.5821m  
    4.65000n    442.4154u    899.5804m  
    4.66000n    441.2201u    899.5786m  
    4.67000n    440.0248u    899.5769m  
    4.68000n    438.8295u    899.5752m  
    4.69000n    437.6342u    899.5734m  
    4.70000n    436.4390u    899.5717m  
    4.71000n    435.2437u    899.5700m  
    4.72000n    434.0484u    899.5683m  
    4.73000n    432.8531u    899.5665m  
    4.74000n    431.6578u    899.5648m  
    4.75000n    430.4625u    899.5631m  
    4.76000n    429.2672u    899.5614m  
    4.77000n    428.0719u    899.5596m  
    4.78000n    426.8766u    899.5579m  
    4.79000n    425.6813u    899.5562m  
    4.80000n    424.4860u    899.5545m  
    4.81000n    423.2908u    899.5527m  
    4.82000n    422.0955u    899.5510m  
    4.83000n    420.9002u    899.5493m  
    4.84000n    419.7049u    899.5476m  
    4.85000n    418.5096u    899.5458m  
    4.86000n    417.3143u    899.5441m  
    4.87000n    416.1190u    899.5424m  
    4.88000n    414.9237u    899.5407m  
    4.89000n    413.7284u    899.5389m  
    4.90000n    412.5331u    899.5372m  
    4.91000n    411.3378u    899.5355m  
    4.92000n    410.1426u    899.5338m  
    4.93000n    408.9473u    899.5320m  
    4.94000n    407.7520u    899.5303m  
    4.95000n    407.7808u    899.5303m  
    4.96000n    412.4622u    899.5371m  
    4.97000n    417.1436u    899.5438m  
    4.98000n    421.8249u    899.5505m  
    4.99000n    426.5063u    899.5572m  
    5.00000n    431.1877u    899.5640m  
    5.01000n    435.8691u    899.5707m  
    5.02000n    440.5505u    899.5774m  
    5.03000n    445.2319u    899.5842m  
    5.04000n    449.9133u    899.5909m  
    5.05000n    454.5947u    899.5976m  
    5.06000n    430.2492u    899.5629m  
    5.07000n    430.9139u    899.5637m  
    5.08000n    430.7109u    899.5634m  
    5.09000n    430.7041u    899.5634m  
    5.10000n    430.7098u    899.5634m  
    5.11000n    430.7096u    899.5634m  
    5.12000n    430.7096u    899.5634m  
    5.13000n    430.7096u    899.5634m  
    5.14000n    430.7096u    899.5634m  
    5.15000n    430.7096u    899.5634m  
    5.16000n    430.7096u    899.5634m  
    5.17000n    430.7096u    899.5634m  
    5.18000n    430.7096u    899.5634m  
    5.19000n    430.7096u    899.5634m  
    5.20000n    430.7096u    899.5634m  
    5.21000n    430.7096u    899.5634m  
    5.22000n    430.7096u    899.5634m  
    5.23000n    430.7096u    899.5634m  
    5.24000n    430.7096u    899.5634m  
    5.25000n    430.7096u    899.5634m  
    5.26000n    430.7096u    899.5634m  
    5.27000n    430.7096u    899.5634m  
    5.28000n    430.7096u    899.5634m  
    5.29000n    430.7096u    899.5634m  
    5.30000n    430.7096u    899.5634m  
    5.31000n    430.7096u    899.5634m  
    5.32000n    430.7096u    899.5634m  
    5.33000n    430.7096u    899.5634m  
    5.34000n    430.7096u    899.5634m  
    5.35000n    430.7096u    899.5634m  
    5.36000n    430.7096u    899.5634m  
    5.37000n    430.7096u    899.5634m  
    5.38000n    430.7096u    899.5634m  
    5.39000n    430.7096u    899.5634m  
    5.40000n    430.7096u    899.5634m  
    5.41000n    430.7096u    899.5634m  
    5.42000n    430.7096u    899.5634m  
    5.43000n    430.7096u    899.5634m  
    5.44000n    430.7096u    899.5634m  
    5.45000n    430.7096u    899.5634m  
    5.46000n    430.7096u    899.5634m  
    5.47000n    430.7096u    899.5634m  
    5.48000n    430.7096u    899.5634m  
    5.49000n    430.7096u    899.5634m  
    5.50000n    430.7096u    899.5634m  
    5.51000n    430.7096u    899.5634m  
    5.52000n    430.7096u    899.5634m  
    5.53000n    430.7096u    899.5634m  
    5.54000n    430.7096u    899.5634m  
    5.55000n    430.7096u    899.5634m  
    5.56000n    430.7096u    899.5634m  
    5.57000n    430.7096u    899.5634m  
    5.58000n    430.7096u    899.5634m  
    5.59000n    430.7096u    899.5634m  
    5.60000n    430.7096u    899.5634m  
    5.61000n    430.7096u    899.5634m  
    5.62000n    430.7096u    899.5634m  
    5.63000n    430.7096u    899.5634m  
    5.64000n    430.7096u    899.5634m  
    5.65000n    430.7096u    899.5634m  
    5.66000n    430.7096u    899.5634m  
    5.67000n    430.7096u    899.5634m  
    5.68000n    430.7096u    899.5634m  
    5.69000n    430.7096u    899.5634m  
    5.70000n    430.7096u    899.5634m  
    5.71000n    430.7096u    899.5634m  
    5.72000n    430.7096u    899.5634m  
    5.73000n    430.7096u    899.5634m  
    5.74000n    430.7096u    899.5634m  
    5.75000n    430.7096u    899.5634m  
    5.76000n    430.7096u    899.5634m  
    5.77000n    430.7096u    899.5634m  
    5.78000n    430.7096u    899.5634m  
    5.79000n    430.7096u    899.5634m  
    5.80000n    430.7096u    899.5634m  
    5.81000n    430.7096u    899.5634m  
    5.82000n    430.7096u    899.5634m  
    5.83000n    430.7096u    899.5634m  
    5.84000n    430.7096u    899.5634m  
    5.85000n    430.7096u    899.5634m  
    5.86000n    430.7096u    899.5634m  
    5.87000n    430.7096u    899.5634m  
    5.88000n    430.7096u    899.5634m  
    5.89000n    430.7096u    899.5634m  
    5.90000n    430.7096u    899.5634m  
    5.91000n    430.7096u    899.5634m  
    5.92000n    430.7096u    899.5634m  
    5.93000n    430.7096u    899.5634m  
    5.94000n    430.7096u    899.5634m  
    5.95000n    430.7096u    899.5634m  
    5.96000n    430.7096u    899.5634m  
    5.97000n    430.7096u    899.5634m  
    5.98000n    430.7096u    899.5634m  
    5.99000n    430.7096u    899.5634m  
    6.00000n    430.7096u    899.5634m  
    6.01000n    430.7096u    899.5634m  
    6.02000n    430.7096u    899.5634m  
    6.03000n    430.7096u    899.5634m  
    6.04000n    430.7096u    899.5634m  
    6.05000n    430.7096u    899.5634m  
    6.06000n    430.7096u    899.5634m  
    6.07000n    430.7096u    899.5634m  
    6.08000n    430.7096u    899.5634m  
    6.09000n    430.7096u    899.5634m  
    6.10000n    430.7096u    899.5634m  
    6.11000n    430.7096u    899.5634m  
    6.12000n    430.7096u    899.5634m  
    6.13000n    430.7096u    899.5634m  
    6.14000n    430.7096u    899.5634m  
    6.15000n    430.7096u    899.5634m  
    6.16000n    430.7096u    899.5634m  
    6.17000n    430.7096u    899.5634m  
    6.18000n    430.7096u    899.5634m  
    6.19000n    430.7096u    899.5634m  
    6.20000n    430.7096u    899.5634m  
    6.21000n    430.7096u    899.5634m  
    6.22000n    430.7096u    899.5634m  
    6.23000n    430.7096u    899.5634m  
    6.24000n    430.7096u    899.5634m  
    6.25000n    430.7096u    899.5634m  
    6.26000n    430.7096u    899.5634m  
    6.27000n    430.7096u    899.5634m  
    6.28000n    430.7096u    899.5634m  
    6.29000n    430.7096u    899.5634m  
    6.30000n    430.7096u    899.5634m  
    6.31000n    430.7096u    899.5634m  
    6.32000n    430.7096u    899.5634m  
    6.33000n    430.7096u    899.5634m  
    6.34000n    430.7096u    899.5634m  
    6.35000n    430.7096u    899.5634m  
    6.36000n    430.7096u    899.5634m  
    6.37000n    430.7096u    899.5634m  
    6.38000n    430.7096u    899.5634m  
    6.39000n    430.7096u    899.5634m  
    6.40000n    430.7096u    899.5634m  
    6.41000n    430.7096u    899.5634m  
    6.42000n    430.7096u    899.5634m  
    6.43000n    430.7096u    899.5634m  
    6.44000n    430.7096u    899.5634m  
    6.45000n    430.7096u    899.5634m  
    6.46000n    430.7096u    899.5634m  
    6.47000n    430.7096u    899.5634m  
    6.48000n    430.7096u    899.5634m  
    6.49000n    430.7096u    899.5634m  
    6.50000n    430.7096u    899.5634m  
    6.51000n    430.7096u    899.5634m  
    6.52000n    430.7096u    899.5634m  
    6.53000n    430.7096u    899.5634m  
    6.54000n    430.7096u    899.5634m  
    6.55000n    430.7096u    899.5634m  
    6.56000n    430.7096u    899.5634m  
    6.57000n    430.7096u    899.5634m  
    6.58000n    430.7096u    899.5634m  
    6.59000n    430.7096u    899.5634m  
    6.60000n    430.7096u    899.5634m  
    6.61000n    430.7096u    899.5634m  
    6.62000n    430.7096u    899.5634m  
    6.63000n    430.7096u    899.5634m  
    6.64000n    430.7096u    899.5634m  
    6.65000n    430.7096u    899.5634m  
    6.66000n    430.7096u    899.5634m  
    6.67000n    430.7096u    899.5634m  
    6.68000n    430.7096u    899.5634m  
    6.69000n    430.7096u    899.5634m  
    6.70000n    430.7096u    899.5634m  
    6.71000n    430.7096u    899.5634m  
    6.72000n    430.7096u    899.5634m  
    6.73000n    430.7096u    899.5634m  
    6.74000n    430.7096u    899.5634m  
    6.75000n    430.7096u    899.5634m  
    6.76000n    430.7096u    899.5634m  
    6.77000n    430.7096u    899.5634m  
    6.78000n    430.7096u    899.5634m  
    6.79000n    430.7096u    899.5634m  
    6.80000n    430.7096u    899.5634m  
    6.81000n    430.7096u    899.5634m  
    6.82000n    430.7096u    899.5634m  
    6.83000n    430.7096u    899.5634m  
    6.84000n    430.7096u    899.5634m  
    6.85000n    430.7096u    899.5634m  
    6.86000n    430.7096u    899.5634m  
    6.87000n    430.7096u    899.5634m  
    6.88000n    430.7096u    899.5634m  
    6.89000n    430.7096u    899.5634m  
    6.90000n    430.7096u    899.5634m  
    6.91000n    430.7096u    899.5634m  
    6.92000n    430.7096u    899.5634m  
    6.93000n    430.7096u    899.5634m  
    6.94000n    430.7096u    899.5634m  
    6.95000n    430.7096u    899.5634m  
    6.96000n    430.7096u    899.5634m  
    6.97000n    430.7096u    899.5634m  
    6.98000n    430.7096u    899.5634m  
    6.99000n    430.7096u    899.5634m  
    7.00000n    430.7096u    899.5634m  
    7.01000n    430.7096u    899.5634m  
    7.02000n    430.7096u    899.5634m  
    7.03000n    430.7096u    899.5634m  
    7.04000n    430.7096u    899.5634m  
    7.05000n    430.7096u    899.5634m  
    7.06000n    430.7096u    899.5634m  
    7.07000n    430.7096u    899.5634m  
    7.08000n    430.7096u    899.5634m  
    7.09000n    430.7096u    899.5634m  
    7.10000n    430.7096u    899.5634m  
    7.11000n    430.7096u    899.5634m  
    7.12000n    430.7096u    899.5634m  
    7.13000n    430.7096u    899.5634m  
    7.14000n    430.7096u    899.5634m  
    7.15000n    430.7096u    899.5634m  
    7.16000n    430.7096u    899.5634m  
    7.17000n    430.7096u    899.5634m  
    7.18000n    430.7096u    899.5634m  
    7.19000n    430.7096u    899.5634m  
    7.20000n    430.7096u    899.5634m  
    7.21000n    430.7096u    899.5634m  
    7.22000n    430.7096u    899.5634m  
    7.23000n    430.7096u    899.5634m  
    7.24000n    430.7096u    899.5634m  
    7.25000n    430.7096u    899.5634m  
    7.26000n    430.7096u    899.5634m  
    7.27000n    430.7096u    899.5634m  
    7.28000n    430.7096u    899.5634m  
    7.29000n    430.7096u    899.5634m  
    7.30000n    430.7096u    899.5634m  
    7.31000n    430.7096u    899.5634m  
    7.32000n    430.7096u    899.5634m  
    7.33000n    430.7096u    899.5634m  
    7.34000n    430.7096u    899.5634m  
    7.35000n    430.7096u    899.5634m  
    7.36000n    430.7096u    899.5634m  
    7.37000n    430.7096u    899.5634m  
    7.38000n    430.7096u    899.5634m  
    7.39000n    430.7096u    899.5634m  
    7.40000n    430.7096u    899.5634m  
    7.41000n    430.7096u    899.5634m  
    7.42000n    430.7096u    899.5634m  
    7.43000n    430.7096u    899.5634m  
    7.44000n    430.7096u    899.5634m  
    7.45000n    430.7096u    899.5634m  
    7.46000n    430.7096u    899.5634m  
    7.47000n    430.7096u    899.5634m  
    7.48000n    430.7096u    899.5634m  
    7.49000n    430.7096u    899.5634m  
    7.50000n    430.7096u    899.5634m  
    7.51000n    430.7096u    899.5634m  
    7.52000n    430.7096u    899.5634m  
    7.53000n    430.7096u    899.5634m  
    7.54000n    430.7096u    899.5634m  
    7.55000n    430.7096u    899.5634m  
    7.56000n    430.7096u    899.5634m  
    7.57000n    430.7096u    899.5634m  
    7.58000n    430.7096u    899.5634m  
    7.59000n    430.7096u    899.5634m  
    7.60000n    430.7096u    899.5634m  
    7.61000n    430.7096u    899.5634m  
    7.62000n    430.7096u    899.5634m  
    7.63000n    430.7096u    899.5634m  
    7.64000n    430.7096u    899.5634m  
    7.65000n    430.7096u    899.5634m  
    7.66000n    430.7096u    899.5634m  
    7.67000n    430.7096u    899.5634m  
    7.68000n    430.7096u    899.5634m  
    7.69000n    430.7096u    899.5634m  
    7.70000n    430.7096u    899.5634m  
    7.71000n    430.7096u    899.5634m  
    7.72000n    430.7096u    899.5634m  
    7.73000n    430.7096u    899.5634m  
    7.74000n    430.7096u    899.5634m  
    7.75000n    430.7096u    899.5634m  
    7.76000n    430.7096u    899.5634m  
    7.77000n    430.7096u    899.5634m  
    7.78000n    430.7096u    899.5634m  
    7.79000n    430.7096u    899.5634m  
    7.80000n    430.7096u    899.5634m  
    7.81000n    430.7096u    899.5634m  
    7.82000n    430.7096u    899.5634m  
    7.83000n    430.7096u    899.5634m  
    7.84000n    430.7096u    899.5634m  
    7.85000n    430.7096u    899.5634m  
    7.86000n    430.7096u    899.5634m  
    7.87000n    430.7096u    899.5634m  
    7.88000n    430.7096u    899.5634m  
    7.89000n    430.7096u    899.5634m  
    7.90000n    430.7096u    899.5634m  
    7.91000n    430.7096u    899.5634m  
    7.92000n    430.7096u    899.5634m  
    7.93000n    430.7096u    899.5634m  
    7.94000n    430.7096u    899.5634m  
    7.95000n    430.7096u    899.5634m  
    7.96000n    430.7096u    899.5634m  
    7.97000n    430.7096u    899.5634m  
    7.98000n    430.7096u    899.5634m  
    7.99000n    430.7096u    899.5634m  
    8.00000n    430.7096u    899.5634m  
y
 inv_avg_power00=   1.2112u  from=   0.          to=   8.0000n
 peakpower00= 789.4878u    at=   6.0469n
             from=   0.         to=   8.0000n
 power_avg=   7.1247u  from=   0.          to=   8.0000n
 avg_power= 5.239e+12  from=   0.          to=   8.0000n

          ***** job concluded
1****** HSPICE -- F-2011.09-SP2 64-BIT (Feb 27 2012) linux ******               
 ******  
 $this uut was automatically generated by:

  ******  job statistics summary tnom=  25.000 temp=  25.000 *****
  
  
 ******  Machine Information  ******
 CPU:
 model name	: Intel(R) Xeon(R) CPU E5-2650 v4 @ 2.20GHz
 cpu MHz	: 2789.359
  
 OS:
 Linux version 3.10.0-693.17.1.el7.x86_64 (mockbuild@x86-041.build.eng.bos.redha
 t.com) (gcc version 4.8.5 20150623 (Red Hat 4.8.5-16) (GCC) ) #1 SMP Sun Jan 14
  10:36:03 EST 2018


  ******  HSPICE Threads Information  ******

  Command Line Threads Count :     1
  Available CPU Count        :    24
  Actual Threads Count       :     1


  ******  Circuit Statistics  ******
  # nodes       =      83 # elements   =      34
  # resistors   =       0 # capacitors =       0 # inductors   =       0
  # mutual_inds =       0 # vccs       =       0 # vcvs        =       0
  # cccs        =       0 # ccvs       =       0 # volt_srcs   =       4
  # curr_srcs   =       0 # diodes     =       0 # bjts        =       0
  # jfets       =       0 # mosfets    =      30 # U elements  =       0
  # T elements  =       0 # W elements =       0 # B elements  =       0
  # S elements  =       0 # P elements =       0 # va device   =       0
  # vector_srcs =       0


  ******  Runtime Statistics (seconds)  ******

  analysis           time    # points   tot. iter  conv.iter
  op point           0.03           1         113
  transient          0.26         801        2299         316 rev=        23
  readin             0.01
  errchk             0.00
  setup              0.00
  output             0.01


           peak memory used        135.46 megabytes
           total cpu time            0.31 seconds
           total elapsed time        0.57 seconds
           job started at     18:49:38 09/11/2020
           job ended   at     18:49:38 09/11/2020


 lic: Release hspice token(s) 
