 ****** HSPICE -- F-2011.09-SP2 64-BIT (Feb 27 2012) linux ******               
  Copyright (C) 2011 Synopsys, Inc. All Rights Reserved.                        
  Unpublished-rights reserved under US copyright laws.
  This program is protected by law and is subject to the
  terms and conditions of the license agreement from Synopsys.
  Use of this program is your acceptance to be bound by the
  license agreement. HSPICE is the trademark of Synopsys, Inc.
  Input File: ptm20lstp.sp                                                      
  Command line options: ptm20lstp.sp
 lic:  
 lic: FLEXlm: v10.8 
 lic: USER:   iliabautista         HOSTNAME: itn2.rc.usf.edu 
 lic: HOSTID:                      PID:      17706 
 lic: Using FLEXlm license file: 
 lic: 27000@license0.rc.usf.edu 
 lic: Checkout 1 hspice 
 lic: License/Maintenance for hspice will expire on 18-jul-2021/2019.06 
 lic: 1(in_use)/50(total) FLOATING license(s) on SERVER license0.rc.usf.edu 
 lic:   
  **warning** (../modelfiles/lstp/20nfet.pm:4) Model nfet device geometries will not be checked against the limits set by lmin, lmax, nfinmin and nfinmax. To enable this check, add a period(.) to the model name(i.e. enable model selector).
1****** HSPICE -- F-2011.09-SP2 64-BIT (Feb 27 2012) linux ******               
 ******  
 $this uut was automatically generated by:

  ******  circuit name directory
 circuit number to circuit name directory
   number circuitname                     definition         multiplier
        0 main circuit
        1 xinput_0.                       inverter           1.00 
        2 xinput_1.                       inverter           1.00 
        3 xinput_2.                       inverter           1.00 
        4 xinverter00.                    inverter           1.00 
        5 xinverter10.                    inverter           1.00 
        6 xinverter20.                    inverter           1.00 
        7 xinverter01.                    inverter           1.00 
        8 xinverter11.                    inverter           1.00 
        9 xinverter21.                    inverter           1.00 
       10 xinverter02.                    inverter           1.00 
       11 xinverter12.                    inverter           1.00 
       12 xinverter22.                    inverter           1.00 
       13 xoutput_00.                     inverter           1.00 
       14 xoutput_10.                     inverter           1.00 
       15 xoutput_20.                     inverter           1.00 
       16 xinput_0.xpfet.                 pfet               1.00 
       17 xinput_0.xnfet.                 nfet               1.00 
       18 xinput_1.xpfet.                 pfet               1.00 
       19 xinput_1.xnfet.                 nfet               1.00 
       20 xinput_2.xpfet.                 pfet               1.00 
       21 xinput_2.xnfet.                 nfet               1.00 
       22 xinverter00.xpfet.              pfet               1.00 
       23 xinverter00.xnfet.              nfet               1.00 
       24 xinverter10.xpfet.              pfet               1.00 
       25 xinverter10.xnfet.              nfet               1.00 
       26 xinverter20.xpfet.              pfet               1.00 
       27 xinverter20.xnfet.              nfet               1.00 
       28 xinverter01.xpfet.              pfet               1.00 
       29 xinverter01.xnfet.              nfet               1.00 
       30 xinverter11.xpfet.              pfet               1.00 
       31 xinverter11.xnfet.              nfet               1.00 
       32 xinverter21.xpfet.              pfet               1.00 
       33 xinverter21.xnfet.              nfet               1.00 
       34 xinverter02.xpfet.              pfet               1.00 
       35 xinverter02.xnfet.              nfet               1.00 
       36 xinverter12.xpfet.              pfet               1.00 
       37 xinverter12.xnfet.              nfet               1.00 
       38 xinverter22.xpfet.              pfet               1.00 
       39 xinverter22.xnfet.              nfet               1.00 
       40 xoutput_00.xpfet.               pfet               1.00 
       41 xoutput_00.xnfet.               nfet               1.00 
       42 xoutput_10.xpfet.               pfet               1.00 
       43 xoutput_10.xnfet.               nfet               1.00 
       44 xoutput_20.xpfet.               pfet               1.00 
       45 xoutput_20.xnfet.               nfet               1.00 
1****** HSPICE -- F-2011.09-SP2 64-BIT (Feb 27 2012) linux ******               
 ******  
 $this uut was automatically generated by:

  ******  mos   model parameters tnom=  25.000 temp=  25.000 *****
 Model Name: pfet 
 BSIM-MG BULK Model(Level72)
   VERSION = 105.03  
   DEVTYPE = -1 
   BULKMOD = 1  
   COREMOD = 0 
   GEOMOD = 1 
   RDSMOD = 1 
   IGCMOD = 1 
   IGBMOD = 1 
   GIDLMOD = 0 
   IIMOD = 0 
   NQSMOD = 0 
   SHMOD = 0 
   RGATEMOD = 0 
   RGEOMOD = 1 
   CGEOMOD = 2 
   CAPMOD = 0 
   LINT = -1.5e-09 m
   LL =      0 m^(LLN+1)
   LLN =      1 
   DLC =      0 m
   DLBIN =      0 
   LLC =      0 m^(LLN+1)
   EOT = 1.1e-09 m
   TOXP = 1.4e-09 m
   EOTBOX = 1.4e-07 m
   HFIN = 2.8e-08 m
   FECH =      1 
   DELTAW =      0 m
   FECHCV =      1 
   DELTAWCV =      0 m
   NBODY =  5e+23 m^-3
   NSD =  3e+26 m^-3
   PHIG =  4.622 eV
   EPSROX =    3.9 
   EPSRSUB =   11.9 
   EASUB =   4.05 eV
   NI0SUB = 1.1e+16 m^-3
   BG0SUB =   1.12 eV
   NC0SUB = 2.86e+25 m^-3
   NGATE =      0 m^-3
   CIT = 1.3e-05 F/m^2
   CDSC = 0.01695 F/m^2
   CDSCD =  0.007 F/m^2
   CDSCDR =  0.007 
   DVT0 =   0.01 
   DVT1 =   0.69 
   PHIN =   0.05 V
   ETA0 =   0.85 
   ETA0R =   0.85 
   DSUB =    0.9 
   K1RSCE =      0 V^1/2
   LPE0 =  5e-09 m
   DVTSHIFT =      0 
   QMFACTOR =      0 
   QMTCENIV =      0 
   QMTCENCV =      0 
   AQMTCEN =      0 
   BQMTCEN = 1.2e-08 
   ETAQM =   0.54 
   QM0 = 0.001143 
   PQM =   0.66 
   QM0ACC =  0.001 
   PQMACC =   0.66 
   VSAT = 8.4e+04 
   AVSAT =      0 
   BVSAT =  1e-07 
   VSAT1 = 8.4e+04 
   AVSAT1 =      0 
   BVSAT1 =  1e-07 
   DELTAVSAT =      1 
   KSATIV =    0.8 
   MEXP =      3 
   AMEXP =      0 
   BMEXP =      1 
   PTWG =      0 
   APTWG =      0 
   BPTWG =  1e-07 
   AT = -0.00156 
   TMEXP =      0 
   PTWGT =  0.004 
   U0 =  0.026 
   ETAMOB =      2 
   UP =      0 
   LPA =      1 
   UA =    0.3 
   AUA =      0 
   BUA =  1e-07 
   EU =    1.8 
   AEU =      0 
   BEU =  1e-07 
   UD =      0 
   AUD =      0 
   BUD =  5e-08 
   UCS =      0 
   UTE =      0 
   UTL = -0.0015 
   UA1 = 0.001032 
   UD1 =      0 
   UCSTE = -0.00478 
   RDSWMIN =      0 
   RDSW =    100 
   ARDSW =      0 
   BRDSW =  1e-07 
   RSWMIN =      0 
   RSW =      0 
   ARSW =      0 
   BRSW =  1e-07 
   RDWMIN =      0 
   RDW =      0 
   ARDW =      0 
   BRDW =  1e-07 
   PRWG =      0 
   WR =      1 
   PRT =  0.001 
   PDIBL1 =    1.3 
   PDIBL2 = 0.0002 
   DROUT =   1.06 
   PVAG =      1 
   PCLM =    0.2 
   APCLM =      0 
   BPCLM =  1e-07 
   PCLMG =      0 
   VASAT =    0.6 
   PCLMCV =  0.013 
   PCLMGCV =      0 
   VASATCV =    0.2 
   RGEXT =      0 ohm
   RGFIN =  0.001 ohm
   RSHS =      0 ohm
   RSHD =      0 ohm
   HEPI =  1e-08 m
   TSILI =  1e-08 m
   RHOC =  5e-12 ohm/m^2
   RHORSD =      1 ohm/m
   RHOEXT =      1 ohm/m
   CRATIO =    0.5 
   DELTAPRSD =      0 m
   SDTERM = 0 
   LSP = 4.8e-09 m
   LDG =  3e-09 m
   EPSRSP =    3.9 
   TGATE =  1e-08 m
   TMASK =      0 m
   ASILIEND =      0 m^2
   ARSDEND =      0 m^2
   PRSDEND =      0 m
   NSDE =  3e+25 m^-3
   RGEOA =      1 
   RGEOB =      0 m^-1
   RGEOC =      0 m^-1
   RGEOD =      0 m^-1
   RGEOE =      0 m^-1
   CGEOA =      1 
   CGEOB =      0 m^-1
   CGEOC =      0 m^-1
   CGEOD =      0 m^-1
   CGEOE =      1 
   AIGBINV = 0.0111 (Fs^2/g)^0.5m^-1
   BIGBINV =   0.03 (Fs^2/g)^0.5m^-1
   CIGBINV =  0.006 V^-1
   EIGBINV =    1.1 V
   NIGBINV =    1.2 
   AIGBACC = 0.0149 
   BIGBACC = 0.000949 
   CIGBACC =  0.075 
   NIGBACC =      3 
   AIGC = 0.0136 (Fs^2/g)^0.5m^-1
   BIGC = 0.00171 (Fs^2/g)^0.5m^-1V^-1
   CIGC =  0.075 V^-1
   NIGC =      1 
   DLCIGS =      0 m
   AIGS = 0.0136 (Fs^2/g)^0.5m^-1
   BIGS = 0.00171 (Fs^2/g)^0.5m^-1V^-1
   CIGS =  0.075 V^-1
   DLCIGD =      0 m
   AIGD = 0.0136 (Fs^2/g)^0.5m^-1
   BIGD = 0.00171 (Fs^2/g)^0.5m^-1V^-1
   CIGD =  0.075 V^-1
   POXEDGE =      1 
   AGIDL = 5.729e-12 ohm^-1
   BGIDL =  3e+08 V/m
   EGIDL =    0.1 V
   AGISL = 5.729e-12 ohm^-1
   BGISL =  3e+08 V/m
   EGISL =    0.1 V
   ALPHA0 =      0 mV^-1
   ALPHA1 =      0 V^-1
   BETA0 =     30 V^-1
   ALPHAII =      0 
   BETAII0 =      0 V^-1
   BETAII1 =      0 
   BETAII2 =    0.1 V
   ESATII =  1e+07 V/m
   LII =  5e-10 V/m
   SII0 =    0.5 V^-1
   SII1 =    0.1 
   SII2 =      0 V
   SIID =      0 V
   EOTACC = 1.1e-09 m
   DELVFBACC =      0 V
   CFS = 2.56e-11 F/m
   CFD = 2.65e-11 F/m
   COVS = 2.5e-11 F/m
   COVD = 2.5e-11 F/m
   CGSO =      0 F/m
   CGDO =      0 F/m
   CGSL =      0 F/m
   CGDL =      0 F/m
   CKAPPAS =    0.6 V
   CKAPPAD =    0.6 V
   CGBO =      0 F/m
   CGBL =      0 F/m
   CKAPPAB =    0.6 V
   CSDESW =      0 F/m
   CJS = 0.0005 F/m^2
   CJD = 0.0005 F/m^2
   CJSWS =  5e-10 F/m
   CJSWD =  5e-10 F/m
   CJSWGS =      0 F/m
   CJSWGD =      0 F/m
   PBS =      1 V
   PBD =      1 V
   PBSWS =      1 V
   PBSWD =      1 V
   PBSWGS =      1 V
   PBSWGD =      1 V
   MJS, =    0.5 
   MJD =    0.5 
   MJSWS =   0.33 
   MJSWD =   0.33 
   MJSWGS =   0.33 
   MJSWGD =   0.33 
   SJS =      0 
   SJD =      0 
   SJSWS =      0 
   SJSWD =      0 
   SJSWGS =      0 
   SJSWGD =      0 
   MJS2 =  0.125 
   MJD2 =  0.125 
   MJSWS2 =   0.33 
   MJSWD2 =   0.33 
   MJSWGS2 =   0.33 
   MJSWGD2 =   0.33 
   JSS = 0.0001 A/m^2
   JSD = 0.0001 A/m^2
   JSWS =      0 A/m
   JSWD =      0 A/m
   JSWGS =      0 A/m
   JSWGD =      0 A/m
   NJS =      1 
   NJD =      1 
   IJTHSFWD =    0.1 A
   IJTHDFWD =    0.1 A
   IJTHSREV =    0.1 A
   IJTHDREV =    0.1 A
   BVS =     10 V
   BVD =     10 V
   XJBVS =      1 
   XJBVD =      1 
   JTSS =      0 A/m^2
   JTSD =      0 A/m^2
   JTSSWS =      0 A/m
   JTSSWD =      0 A/m
   JTSSWGS =      0 A/m
   JTSSWGD =      0 A/m
   JTWEFF =      0 m
   NJTS =     20 
   NJTSD =     20 
   NJTSSW =     20 
   NJTSSWD =     20 
   NJTSSWG =     20 
   NJTSSWGD =     20 
   VTSS =     10 V
   VTSD =     10 V
   VTSSWS =     10 V
   VTSSWD =     10 V
   VTSSWGS =     10 V
   VTSSWGD =     10 V
   LINTIGEN =      0 m
   NTGEN =      1 
   AIGEN =      0 m^-3V^-1
   BIGEN =      0 m^-3V^-3
   XRCRG1 =     12 
   XRCRG2 =      1 
   NSEG = 5 
   EF =      1 
   EM = 4.1e+07 V/m
   NOIA = 6.25e+39 eV^-1s^1-EFm^-3
   NOIB = 3.125e+24 eV^-1s^1-EFm^-1
   NOIC = 8.75e+07 eV^-1s^1-EFm
   NTNOI =      1 
   TNOM =  300.1 K
   TBGASUB = 0.000702 eV/K
   TBGBSUB =   1108 K
   KT1 =      0 V
   KT1L =      0 Vm
   IIT =   -0.5 
   TII =      0 
   TGIDL = -0.0003 K^-1
   IGT =    2.5 
   TCJ =      0 K^-1
   TCJSW =      0 K^-1
   TCJSWG =      0 K^-1
   TPB =      0 K^-1
   TPBSW =      0 K^-1
   TPBSWG =      0 K^-1
   XTIS =      3 
   XTID =      3 
   XTSS =   0.02 
   XTSD =   0.02 
   XTSSWS =   0.02 
   XTSSWD =   0.02 
   XTSSWGS =   0.02 
   XTSSWGD =   0.02 
   TNJTS =      0 
   TNJTSD =      0 
   TNJTSSW =      0 
   TNJTSSWD =      0 
   TNJTSSWG =      0 
   TNJTSSWGD =      0 
   RTH0 =   0.01 ohm
   CTH0 =  1e-05 F
   WTH0 =      0 m
   LNBODY =      0 
   NNBODY =      0 
   PNBODY =      0 
   LPHIG =      0 
   NPHIG =      0 
   PPHIG =      0 
   LNGATE =      0 
   NNGATE =      0 
   PNGATE =      0 
   LCIT =      0 
   NCIT =      0 
   PCIT =      0 
   LCDSC =      0 
   NCDSC =      0 
   PCDSC =      0 
   LCDSCD =      0 
   NCDSCD =      0 
   PCDSCD =      0 
   LCDSCDR =      0 
   NCDSCDR =      0 
   PCDSCDR =      0 
   LDVT0 =      0 
   NDVT0 =      0 
   PDVT0 =      0 
   LDVT1 =      0 
   NDVT1 =      0 
   PDVT1 =      0 
   LPHIN =      0 
   NPHIN =      0 
   PPHIN =      0 
   LETA0 =      0 
   NETA0 =      0 
   PETA0 =      0 
   LETA0R =      0 
   NETA0R =      0 
   PETA0R =      0 
   LDSUB =      0 
   NDSUB =      0 
   PDSUB =      0 
   LK1RSCE =      0 
   NK1RSCE =      0 
   PK1RSCE =      0 
   LLPE0 =      0 
   NLPE0 =      0 
   PLPE0 =      0 
   LQMFACTOR =      0 
   NQMFACTOR =      0 
   PQMFACTOR =      0 
   LQMTCENIV =      0 
   NQMTCENIV =      0 
   PQMTCENIV =      0 
   LQMTCENCV =      0 
   NQMTCENCV =      0 
   PQMTCENCV =      0 
   LVSAT =      0 
   NVSAT =      0 
   PVSAT =      0 
   LKSATIV =      0 
   NKSATIV =      0 
   PKSATIV =      0 
   LMEXP =      0 
   NMEXP =      0 
   PMEXP =      0 
   LPTWG =      0 
   NPTWG =      0 
   PPTWG =      0 
   LTHETASAT =      0 
   NTHETASAT =      0 
   PTHETASAT =      0 
   LU0 =      0 
   NU0 =      0 
   PU0 =      0 
   LUP =      0 
   NUP =      0 
   PUP =      0 
   LUA =      0 
   NUA =      0 
   PUA =      0 
   LEU =      0 
   NEU =      0 
   PEU =      0 
   LUD =      0 
   NUD =      0 
   PUD =      0 
   LUCS =      0 
   NUCS =      0 
   PUCS =      0 
   LPCLM =      0 
   NPCLM =      0 
   PPCLM =      0 
   LPCLMCV =      0 
   NPCLMCV =      0 
   PPCLMCV =      0 
   LRDSW =      0 
   NRDSW =      0 
   PRDSW =      0 
   LRSW =      0 
   NRSW =      0 
   PRSW =      0 
   LRDW =      0 
   NRDW =      0 
   PRDW =      0 
   LPRWG =      0 
   NPRWG =      0 
   PPRWG =      0 
   LWR =      0 
   NWR =      0 
   PWR =      0 
   LPDIBL1 =      0 
   NPDIBL1 =      0 
   PPDIBL1 =      0 
   LPDIBL2 =      0 
   NPDIBL2 =      0 
   PPDIBL2 =      0 
   LDROUT =      0 
   NDROUT =      0 
   PDROUT =      0 
   LPVAG =      0 
   NPVAG =      0 
   PPVAG =      0 
   LAIGBINV =      0 
   NAIGBINV =      0 
   PAIGBINV =      0 
   LBIGBINV =      0 
   NBIGBINV =      0 
   PBIGBINV =      0 
   LCIGBINV =      0 
   NCIGBINV =      0 
   PCIGBINV =      0 
   LEIGBINV =      0 
   NEIGBINV =      0 
   PEIGBINV =      0 
   LNIGBINV =      0 
   NNIGBINV =      0 
   PNIGBINV =      0 
   LAIGC =      0 
   NAIGC =      0 
   PAIGC =      0 
   LBIGC =      0 
   NBIGC =      0 
   PBIGC =      0 
   LCIGC =      0 
   NCIGC =      0 
   PCIGC =      0 
   LNIGC =      0 
   NNIGC =      0 
   PNIGC =      0 
   LAIGS =      0 
   NAIGS =      0 
   PAIGS =      0 
   LBIGS =      0 
   NBIGS =      0 
   PBIGS =      0 
   LCIGS =      0 
   NCIGS =      0 
   PCIGS =      0 
   LAIGD =      0 
   NAIGD =      0 
   PAIGD =      0 
   LBIGD =      0 
   NBIGD =      0 
   PBIGD =      0 
   LCIGD =      0 
   NCIGD =      0 
   PCIGD =      0 
   LPOXEDGE =      0 
   NPOXEDGE =      0 
   PPOXEDGE =      0 
   LAGIDL =      0 
   NAGIDL =      0 
   PAGIDL =      0 
   LBGIDL =      0 
   NBGIDL =      0 
   PBGIDL =      0 
   LEGIDL =      0 
   NEGIDL =      0 
   PEGIDL =      0 
   LAGISL =      0 
   NAGISL =      0 
   PAGISL =      0 
   LBGISL =      0 
   NBGISL =      0 
   PBGISL =      0 
   LEGISL =      0 
   NEGISL =      0 
   PEGISL =      0 
   LALPHA0 =      0 
   NALPHA0 =      0 
   PALPHA0 =      0 
   LALPHA1 =      0 
   NALPHA1 =      0 
   PALPHA1 =      0 
   LBETA0 =      0 
   NBETA0 =      0 
   PBETA0 =      0 
   LALPHAII =      0 
   NALPHAII =      0 
   PALPHAII =      0 
   LBETAII0 =      0 
   NBETAII0 =      0 
   PBETAII0 =      0 
   LBETAII1 =      0 
   NBETAII1 =      0 
   PBETAII1 =      0 
   LBETAII2 =      0 
   NBETAII2 =      0 
   PBETAII2 =      0 
   LESATII =      0 
   NESATII =      0 
   PESATII =      0 
   LLII =      0 
   NLII =      0 
   PLII =      0 
   LSII0 =      0 
   NSII0 =      0 
   PSII0 =      0 
   LSII1 =      0 
   NSII1 =      0 
   PSII1 =      0 
   LSII2 =      0 
   NSII2 =      0 
   PSII2 =      0 
   LSIID =      0 
   NSIID =      0 
   PSIID =      0 
   LCFS =      0 
   NCFS =      0 
   PCFS =      0 
   LCFD =      0 
   NCFD =      0 
   PCFD =      0 
   LCOVS =      0 
   NCOVS =      0 
   PCOVS =      0 
   LCOVD =      0 
   NCOVD =      0 
   PCOVD =      0 
   LCGSL =      0 
   NCGSL =      0 
   PCGSL =      0 
   LCGDL =      0 
   NCGDL =      0 
   PCGDL =      0 
   LCKAPPAS =      0 
   NCKAPPAS =      0 
   PCKAPPAS =      0 
   LCKAPPAD =      0 
   NCKAPPAD =      0 
   PCKAPPAD =      0 
   LCGBL =      0 
   NCGBL =      0 
   PCGBL =      0 
   LCKAPPAB =      0 
   NCKAPPAB =      0 
   PCKAPPAB =      0 
   LNTGEN =      0 
   NNTGEN =      0 
   PNTGEN =      0 
   LAIGEN =      0 
   NAIGEN =      0 
   PAIGEN =      0 
   LBIGEN =      0 
   NBIGEN =      0 
   PBIGEN =      0 
   LXRCRG1 =      0 
   NXRCRG1 =      0 
   PXRCRG1 =      0 
   LXRCRG2 =      0 
   NXRCRG2 =      0 
   PXRCRG2 =      0 
   LINTNOI =      0 
   NINTNOI =      0 
   PINTNOI =      0 
   LUTE =      0 
   NUTE =      0 
   PUTE =      0 
   LUTL =      0 
   NUTL =      0 
   PUTL =      0 
   LUA1 =      0 
   NUA1 =      0 
   PUA1 =      0 
   LUD1 =      0 
   NUD1 =      0 
   PUD1 =      0 
   LUCSTE =      0 
   NUCSTE =      0 
   PUCSTE =      0 
   LPTWGT =      0 
   NPTWGT =      0 
   PPTWGT =      0 
   LAT =      0 
   NAT =      0 
   PAT =      0 
   LSTTHETASAT =      0 
   NSTTHETASAT =      0 
   PSTTHETASAT =      0 
   LPRT =      0 
   NPRT =      0 
   PPRT =      0 
   LIIT =      0 
   NIIT =      0 
   PIIT =      0 
   LTII =      0 
   NTII =      0 
   PTII =      0 
   LTGIDL =      0 
   NTGIDL =      0 
   PTGIDL =      0 
   LIGT =      0 
   NIGT =      0 
   PIGT =      0 
   L = 2.4e-08 m
   D =  4e-08 m
   TFIN = 1.5e-08 m
   FPITCH =  6e-08 m
   NF = 1 
   NFIN = 1 
   NGCON = 1 
   ASEO =      0 m^2
   ADEO =      0 m^2
   PSEO =      0 m
   PDEO =      0 m
   ASEJ =      0 m^2
   ADEJ =      0 m^2
   PSEJ =      0 m
   PDEJ =      0 m
   CGSP =      0 F
   CGDP =      0 F
   CDSP =      0 F
   NRS =      0 
   NRD =      0 
   LRSD = 2.4e-08 m
   XL =      0 m
   DELVTRAND =      0 
   U0MULT =      1 
   IDS0MULT =      1 
   Lmin =  1e-08 m
   Lmax = 2.4e-08 m
   NFINmin = 0 
   NFINmax = 1 
   LVSAT1 =      0 
   NVSAT1 =      0 
   PVSAT1 =      0 
   LETAMOB =      0 
   NETAMOB =      0 
   PETAMOB =      0 
   LPCLMG =      0 
   NPCLMG =      0 
   PPCLMG =      0 
   LVASAT =      0 
   NVASAT =      0 
   PVASAT =      0 
   LAIGBACC =      0 
   NAIGBACC =      0 
   PAIGBACC =      0 
   LBIGBACC =      0 
   NBIGBACC =      0 
   PBIGBACC =      0 
   LCIGBACC =      0 
   NCIGBACC =      0 
   PCIGBACC =      0 
   LNIGBACC =      0 
   NNIGBACC =      0 
   PNIGBACC =      0 
 Model Name: nfet 
 BSIM-MG BULK Model(Level72)
   VERSION = 105.03  
   DEVTYPE = 1 
   BULKMOD = 1  
   COREMOD = 0 
   GEOMOD = 1 
   RDSMOD = 1 
   IGCMOD = 1 
   IGBMOD = 1 
   GIDLMOD = 0 
   IIMOD = 0 
   NQSMOD = 0 
   SHMOD = 0 
   RGATEMOD = 0 
   RGEOMOD = 1 
   CGEOMOD = 2 
   CAPMOD = 0 
   LINT = -1.5e-09 m
   LL =      0 m^(LLN+1)
   LLN =      1 
   DLC =      0 m
   DLBIN =      0 
   LLC =      0 m^(LLN+1)
   EOT = 1.1e-09 m
   TOXP = 1.4e-09 m
   EOTBOX = 1.4e-07 m
   HFIN = 2.8e-08 m
   FECH =      1 
   DELTAW =      0 m
   FECHCV =      1 
   DELTAWCV =      0 m
   NBODY =  5e+23 m^-3
   NSD =  3e+26 m^-3
   PHIG =  4.557 eV
   EPSROX =    3.9 
   EPSRSUB =   11.9 
   EASUB =   4.05 eV
   NI0SUB = 1.1e+16 m^-3
   BG0SUB =   1.12 eV
   NC0SUB = 2.86e+25 m^-3
   NGATE =      0 m^-3
   CIT = 1.3e-05 F/m^2
   CDSC = 0.01695 F/m^2
   CDSCD =  0.007 F/m^2
   CDSCDR =  0.007 
   DVT0 =   0.01 
   DVT1 =   0.69 
   PHIN =   0.05 V
   ETA0 = 0.6656 
   ETA0R = 0.6656 
   DSUB =    0.9 
   K1RSCE =      0 V^1/2
   LPE0 =  5e-09 m
   DVTSHIFT =      0 
   QMFACTOR =      0 
   QMTCENIV =      0 
   QMTCENCV =      0 
   AQMTCEN =      0 
   BQMTCEN = 1.2e-08 
   ETAQM =   0.54 
   QM0 = 0.001143 
   PQM =   0.66 
   QM0ACC =  0.001 
   PQMACC =   0.66 
   VSAT = 8.5e+04 
   AVSAT =      0 
   BVSAT =  1e-07 
   VSAT1 = 8.5e+04 
   AVSAT1 =      0 
   BVSAT1 =  1e-07 
   DELTAVSAT =      1 
   KSATIV =    0.8 
   MEXP =      3 
   AMEXP =      0 
   BMEXP =      1 
   PTWG =      0 
   APTWG =      0 
   BPTWG =  1e-07 
   AT = -0.00156 
   TMEXP =      0 
   PTWGT =  0.004 
   U0 =  0.038 
   ETAMOB =      2 
   UP =      0 
   LPA =      1 
   UA =    0.3 
   AUA =      0 
   BUA =  1e-07 
   EU =    1.8 
   AEU =      0 
   BEU =  1e-07 
   UD =      0 
   AUD =      0 
   BUD =  5e-08 
   UCS =      0 
   UTE =      0 
   UTL = -0.0015 
   UA1 = 0.001032 
   UD1 =      0 
   UCSTE = -0.00478 
   RDSWMIN =      0 
   RDSW =    100 
   ARDSW =      0 
   BRDSW =  1e-07 
   RSWMIN =      0 
   RSW =      0 
   ARSW =      0 
   BRSW =  1e-07 
   RDWMIN =      0 
   RDW =      0 
   ARDW =      0 
   BRDW =  1e-07 
   PRWG =      0 
   WR =      1 
   PRT =  0.001 
   PDIBL1 =    1.3 
   PDIBL2 = 0.0002 
   DROUT =   1.06 
   PVAG =      1 
   PCLM =    0.2 
   APCLM =      0 
   BPCLM =  1e-07 
   PCLMG =      0 
   VASAT =    0.6 
   PCLMCV =  0.013 
   PCLMGCV =      0 
   VASATCV =    0.2 
   RGEXT =      0 ohm
   RGFIN =  0.001 ohm
   RSHS =      0 ohm
   RSHD =      0 ohm
   HEPI =  1e-08 m
   TSILI =  1e-08 m
   RHOC =  4e-12 ohm/m^2
   RHORSD =      1 ohm/m
   RHOEXT =      1 ohm/m
   CRATIO =    0.5 
   DELTAPRSD =      0 m
   SDTERM = 0 
   LSP = 4.8e-09 m
   LDG =  3e-09 m
   EPSRSP =    3.9 
   TGATE =  1e-08 m
   TMASK =      0 m
   ASILIEND =      0 m^2
   ARSDEND =      0 m^2
   PRSDEND =      0 m
   NSDE =  3e+25 m^-3
   RGEOA =      1 
   RGEOB =      0 m^-1
   RGEOC =      0 m^-1
   RGEOD =      0 m^-1
   RGEOE =      0 m^-1
   CGEOA =      1 
   CGEOB =      0 m^-1
   CGEOC =      0 m^-1
   CGEOD =      0 m^-1
   CGEOE =      1 
   AIGBINV = 0.0111 (Fs^2/g)^0.5m^-1
   BIGBINV =   0.03 (Fs^2/g)^0.5m^-1
   CIGBINV =  0.006 V^-1
   EIGBINV =    1.1 V
   NIGBINV =    1.2 
   AIGBACC = 0.0149 
   BIGBACC = 0.000949 
   CIGBACC =  0.075 
   NIGBACC =      3 
   AIGC = 0.0136 (Fs^2/g)^0.5m^-1
   BIGC = 0.00171 (Fs^2/g)^0.5m^-1V^-1
   CIGC =  0.075 V^-1
   NIGC =      1 
   DLCIGS =      0 m
   AIGS = 0.0136 (Fs^2/g)^0.5m^-1
   BIGS = 0.00171 (Fs^2/g)^0.5m^-1V^-1
   CIGS =  0.075 V^-1
   DLCIGD =      0 m
   AIGD = 0.0136 (Fs^2/g)^0.5m^-1
   BIGD = 0.00171 (Fs^2/g)^0.5m^-1V^-1
   CIGD =  0.075 V^-1
   POXEDGE =      1 
   AGIDL = 5.729e-12 ohm^-1
   BGIDL =  3e+08 V/m
   EGIDL =    0.1 V
   AGISL = 5.729e-12 ohm^-1
   BGISL =  3e+08 V/m
   EGISL =    0.1 V
   ALPHA0 =      0 mV^-1
   ALPHA1 =      0 V^-1
   BETA0 =     30 V^-1
   ALPHAII =      0 
   BETAII0 =      0 V^-1
   BETAII1 =      0 
   BETAII2 =    0.1 V
   ESATII =  1e+07 V/m
   LII =  5e-10 V/m
   SII0 =    0.5 V^-1
   SII1 =    0.1 
   SII2 =      0 V
   SIID =      0 V
   EOTACC = 1.1e-09 m
   DELVFBACC =      0 V
   CFS = 2.56e-11 F/m
   CFD = 2.65e-11 F/m
   COVS = 2.5e-11 F/m
   COVD = 2.5e-11 F/m
   CGSO =      0 F/m
   CGDO =      0 F/m
   CGSL =      0 F/m
   CGDL =      0 F/m
   CKAPPAS =    0.6 V
   CKAPPAD =    0.6 V
   CGBO =      0 F/m
   CGBL =      0 F/m
   CKAPPAB =    0.6 V
   CSDESW =      0 F/m
   CJS = 0.0005 F/m^2
   CJD = 0.0005 F/m^2
   CJSWS =  5e-10 F/m
   CJSWD =  5e-10 F/m
   CJSWGS =      0 F/m
   CJSWGD =      0 F/m
   PBS =      1 V
   PBD =      1 V
   PBSWS =      1 V
   PBSWD =      1 V
   PBSWGS =      1 V
   PBSWGD =      1 V
   MJS, =    0.5 
   MJD =    0.5 
   MJSWS =   0.33 
   MJSWD =   0.33 
   MJSWGS =   0.33 
   MJSWGD =   0.33 
   SJS =      0 
   SJD =      0 
   SJSWS =      0 
   SJSWD =      0 
   SJSWGS =      0 
   SJSWGD =      0 
   MJS2 =  0.125 
   MJD2 =  0.125 
   MJSWS2 =   0.33 
   MJSWD2 =   0.33 
   MJSWGS2 =   0.33 
   MJSWGD2 =   0.33 
   JSS = 0.0001 A/m^2
   JSD = 0.0001 A/m^2
   JSWS =      0 A/m
   JSWD =      0 A/m
   JSWGS =      0 A/m
   JSWGD =      0 A/m
   NJS =      1 
   NJD =      1 
   IJTHSFWD =    0.1 A
   IJTHDFWD =    0.1 A
   IJTHSREV =    0.1 A
   IJTHDREV =    0.1 A
   BVS =     10 V
   BVD =     10 V
   XJBVS =      1 
   XJBVD =      1 
   JTSS =      0 A/m^2
   JTSD =      0 A/m^2
   JTSSWS =      0 A/m
   JTSSWD =      0 A/m
   JTSSWGS =      0 A/m
   JTSSWGD =      0 A/m
   JTWEFF =      0 m
   NJTS =     20 
   NJTSD =     20 
   NJTSSW =     20 
   NJTSSWD =     20 
   NJTSSWG =     20 
   NJTSSWGD =     20 
   VTSS =     10 V
   VTSD =     10 V
   VTSSWS =     10 V
   VTSSWD =     10 V
   VTSSWGS =     10 V
   VTSSWGD =     10 V
   LINTIGEN =      0 m
   NTGEN =      1 
   AIGEN =      0 m^-3V^-1
   BIGEN =      0 m^-3V^-3
   XRCRG1 =     12 
   XRCRG2 =      1 
   NSEG = 5 
   EF =      1 
   EM = 4.1e+07 V/m
   NOIA = 6.25e+39 eV^-1s^1-EFm^-3
   NOIB = 3.125e+24 eV^-1s^1-EFm^-1
   NOIC = 8.75e+07 eV^-1s^1-EFm
   NTNOI =      1 
   TNOM =  300.1 K
   TBGASUB = 0.000702 eV/K
   TBGBSUB =   1108 K
   KT1 =      0 V
   KT1L =      0 Vm
   IIT =   -0.5 
   TII =      0 
   TGIDL = -0.0003 K^-1
   IGT =    2.5 
   TCJ =      0 K^-1
   TCJSW =      0 K^-1
   TCJSWG =      0 K^-1
   TPB =      0 K^-1
   TPBSW =      0 K^-1
   TPBSWG =      0 K^-1
   XTIS =      3 
   XTID =      3 
   XTSS =   0.02 
   XTSD =   0.02 
   XTSSWS =   0.02 
   XTSSWD =   0.02 
   XTSSWGS =   0.02 
   XTSSWGD =   0.02 
   TNJTS =      0 
   TNJTSD =      0 
   TNJTSSW =      0 
   TNJTSSWD =      0 
   TNJTSSWG =      0 
   TNJTSSWGD =      0 
   RTH0 =   0.01 ohm
   CTH0 =  1e-05 F
   WTH0 =      0 m
   LNBODY =      0 
   NNBODY =      0 
   PNBODY =      0 
   LPHIG =      0 
   NPHIG =      0 
   PPHIG =      0 
   LNGATE =      0 
   NNGATE =      0 
   PNGATE =      0 
   LCIT =      0 
   NCIT =      0 
   PCIT =      0 
   LCDSC =      0 
   NCDSC =      0 
   PCDSC =      0 
   LCDSCD =      0 
   NCDSCD =      0 
   PCDSCD =      0 
   LCDSCDR =      0 
   NCDSCDR =      0 
   PCDSCDR =      0 
   LDVT0 =      0 
   NDVT0 =      0 
   PDVT0 =      0 
   LDVT1 =      0 
   NDVT1 =      0 
   PDVT1 =      0 
   LPHIN =      0 
   NPHIN =      0 
   PPHIN =      0 
   LETA0 =      0 
   NETA0 =      0 
   PETA0 =      0 
   LETA0R =      0 
   NETA0R =      0 
   PETA0R =      0 
   LDSUB =      0 
   NDSUB =      0 
   PDSUB =      0 
   LK1RSCE =      0 
   NK1RSCE =      0 
   PK1RSCE =      0 
   LLPE0 =      0 
   NLPE0 =      0 
   PLPE0 =      0 
   LQMFACTOR =      0 
   NQMFACTOR =      0 
   PQMFACTOR =      0 
   LQMTCENIV =      0 
   NQMTCENIV =      0 
   PQMTCENIV =      0 
   LQMTCENCV =      0 
   NQMTCENCV =      0 
   PQMTCENCV =      0 
   LVSAT =      0 
   NVSAT =      0 
   PVSAT =      0 
   LKSATIV =      0 
   NKSATIV =      0 
   PKSATIV =      0 
   LMEXP =      0 
   NMEXP =      0 
   PMEXP =      0 
   LPTWG =      0 
   NPTWG =      0 
   PPTWG =      0 
   LTHETASAT =      0 
   NTHETASAT =      0 
   PTHETASAT =      0 
   LU0 =      0 
   NU0 =      0 
   PU0 =      0 
   LUP =      0 
   NUP =      0 
   PUP =      0 
   LUA =      0 
   NUA =      0 
   PUA =      0 
   LEU =      0 
   NEU =      0 
   PEU =      0 
   LUD =      0 
   NUD =      0 
   PUD =      0 
   LUCS =      0 
   NUCS =      0 
   PUCS =      0 
   LPCLM =      0 
   NPCLM =      0 
   PPCLM =      0 
   LPCLMCV =      0 
   NPCLMCV =      0 
   PPCLMCV =      0 
   LRDSW =      0 
   NRDSW =      0 
   PRDSW =      0 
   LRSW =      0 
   NRSW =      0 
   PRSW =      0 
   LRDW =      0 
   NRDW =      0 
   PRDW =      0 
   LPRWG =      0 
   NPRWG =      0 
   PPRWG =      0 
   LWR =      0 
   NWR =      0 
   PWR =      0 
   LPDIBL1 =      0 
   NPDIBL1 =      0 
   PPDIBL1 =      0 
   LPDIBL2 =      0 
   NPDIBL2 =      0 
   PPDIBL2 =      0 
   LDROUT =      0 
   NDROUT =      0 
   PDROUT =      0 
   LPVAG =      0 
   NPVAG =      0 
   PPVAG =      0 
   LAIGBINV =      0 
   NAIGBINV =      0 
   PAIGBINV =      0 
   LBIGBINV =      0 
   NBIGBINV =      0 
   PBIGBINV =      0 
   LCIGBINV =      0 
   NCIGBINV =      0 
   PCIGBINV =      0 
   LEIGBINV =      0 
   NEIGBINV =      0 
   PEIGBINV =      0 
   LNIGBINV =      0 
   NNIGBINV =      0 
   PNIGBINV =      0 
   LAIGC =      0 
   NAIGC =      0 
   PAIGC =      0 
   LBIGC =      0 
   NBIGC =      0 
   PBIGC =      0 
   LCIGC =      0 
   NCIGC =      0 
   PCIGC =      0 
   LNIGC =      0 
   NNIGC =      0 
   PNIGC =      0 
   LAIGS =      0 
   NAIGS =      0 
   PAIGS =      0 
   LBIGS =      0 
   NBIGS =      0 
   PBIGS =      0 
   LCIGS =      0 
   NCIGS =      0 
   PCIGS =      0 
   LAIGD =      0 
   NAIGD =      0 
   PAIGD =      0 
   LBIGD =      0 
   NBIGD =      0 
   PBIGD =      0 
   LCIGD =      0 
   NCIGD =      0 
   PCIGD =      0 
   LPOXEDGE =      0 
   NPOXEDGE =      0 
   PPOXEDGE =      0 
   LAGIDL =      0 
   NAGIDL =      0 
   PAGIDL =      0 
   LBGIDL =      0 
   NBGIDL =      0 
   PBGIDL =      0 
   LEGIDL =      0 
   NEGIDL =      0 
   PEGIDL =      0 
   LAGISL =      0 
   NAGISL =      0 
   PAGISL =      0 
   LBGISL =      0 
   NBGISL =      0 
   PBGISL =      0 
   LEGISL =      0 
   NEGISL =      0 
   PEGISL =      0 
   LALPHA0 =      0 
   NALPHA0 =      0 
   PALPHA0 =      0 
   LALPHA1 =      0 
   NALPHA1 =      0 
   PALPHA1 =      0 
   LBETA0 =      0 
   NBETA0 =      0 
   PBETA0 =      0 
   LALPHAII =      0 
   NALPHAII =      0 
   PALPHAII =      0 
   LBETAII0 =      0 
   NBETAII0 =      0 
   PBETAII0 =      0 
   LBETAII1 =      0 
   NBETAII1 =      0 
   PBETAII1 =      0 
   LBETAII2 =      0 
   NBETAII2 =      0 
   PBETAII2 =      0 
   LESATII =      0 
   NESATII =      0 
   PESATII =      0 
   LLII =      0 
   NLII =      0 
   PLII =      0 
   LSII0 =      0 
   NSII0 =      0 
   PSII0 =      0 
   LSII1 =      0 
   NSII1 =      0 
   PSII1 =      0 
   LSII2 =      0 
   NSII2 =      0 
   PSII2 =      0 
   LSIID =      0 
   NSIID =      0 
   PSIID =      0 
   LCFS =      0 
   NCFS =      0 
   PCFS =      0 
   LCFD =      0 
   NCFD =      0 
   PCFD =      0 
   LCOVS =      0 
   NCOVS =      0 
   PCOVS =      0 
   LCOVD =      0 
   NCOVD =      0 
   PCOVD =      0 
   LCGSL =      0 
   NCGSL =      0 
   PCGSL =      0 
   LCGDL =      0 
   NCGDL =      0 
   PCGDL =      0 
   LCKAPPAS =      0 
   NCKAPPAS =      0 
   PCKAPPAS =      0 
   LCKAPPAD =      0 
   NCKAPPAD =      0 
   PCKAPPAD =      0 
   LCGBL =      0 
   NCGBL =      0 
   PCGBL =      0 
   LCKAPPAB =      0 
   NCKAPPAB =      0 
   PCKAPPAB =      0 
   LNTGEN =      0 
   NNTGEN =      0 
   PNTGEN =      0 
   LAIGEN =      0 
   NAIGEN =      0 
   PAIGEN =      0 
   LBIGEN =      0 
   NBIGEN =      0 
   PBIGEN =      0 
   LXRCRG1 =      0 
   NXRCRG1 =      0 
   PXRCRG1 =      0 
   LXRCRG2 =      0 
   NXRCRG2 =      0 
   PXRCRG2 =      0 
   LINTNOI =      0 
   NINTNOI =      0 
   PINTNOI =      0 
   LUTE =      0 
   NUTE =      0 
   PUTE =      0 
   LUTL =      0 
   NUTL =      0 
   PUTL =      0 
   LUA1 =      0 
   NUA1 =      0 
   PUA1 =      0 
   LUD1 =      0 
   NUD1 =      0 
   PUD1 =      0 
   LUCSTE =      0 
   NUCSTE =      0 
   PUCSTE =      0 
   LPTWGT =      0 
   NPTWGT =      0 
   PPTWGT =      0 
   LAT =      0 
   NAT =      0 
   PAT =      0 
   LSTTHETASAT =      0 
   NSTTHETASAT =      0 
   PSTTHETASAT =      0 
   LPRT =      0 
   NPRT =      0 
   PPRT =      0 
   LIIT =      0 
   NIIT =      0 
   PIIT =      0 
   LTII =      0 
   NTII =      0 
   PTII =      0 
   LTGIDL =      0 
   NTGIDL =      0 
   PTGIDL =      0 
   LIGT =      0 
   NIGT =      0 
   PIGT =      0 
   L = 2.4e-08 m
   D =  4e-08 m
   TFIN = 1.5e-08 m
   FPITCH =  6e-08 m
   NF = 1 
   NFIN = 1 
   NGCON = 1 
   ASEO =      0 m^2
   ADEO =      0 m^2
   PSEO =      0 m
   PDEO =      0 m
   ASEJ =      0 m^2
   ADEJ =      0 m^2
   PSEJ =      0 m
   PDEJ =      0 m
   CGSP =      0 F
   CGDP =      0 F
   CDSP =      0 F
   NRS =      0 
   NRD =      0 
   LRSD = 2.4e-08 m
   XL =      0 m
   DELVTRAND =      0 
   U0MULT =      1 
   IDS0MULT =      1 
   Lmin =  1e-08 m
   Lmax = 2.4e-08 m
   NFINmin = 0 
   NFINmax = 1 
   LVSAT1 =      0 
   NVSAT1 =      0 
   PVSAT1 =      0 
   LETAMOB =      0 
   NETAMOB =      0 
   PETAMOB =      0 
   LPCLMG =      0 
   NPCLMG =      0 
   PPCLMG =      0 
   LVASAT =      0 
   NVASAT =      0 
   PVASAT =      0 
   LAIGBACC =      0 
   NAIGBACC =      0 
   PAIGBACC =      0 
   LBIGBACC =      0 
   NBIGBACC =      0 
   PBIGBACC =      0 
   LCIGBACC =      0 
   NCIGBACC =      0 
   PCIGBACC =      0 
   LNIGBACC =      0 
   NNIGBACC =      0 
   PNIGBACC =      0 
  **info** (ptm20lstp.sp:15) DC voltage reset to initial transient source value              in source        0:vin_0               new dc=  0.9000D+00
  
 **warning**  No DC path to ground from node        0:outin_40         defined in subckt 0               ; Connected by HSPICE with gdcpath


      
 **info** set option symb=1 internally to help for convergence.
 *****************************************************************
 ******  option summary
 ******
 runlvl  = 3         bypass  = 2         
  Opening plot unit= 15
 file=ptm20lstp.pa0                                                            

1****** HSPICE -- F-2011.09-SP2 64-BIT (Feb 27 2012) linux ******               
 ******  
 $this uut was automatically generated by:

  ******  operating point information tnom=  25.000 temp=  25.000 *****
 ***** operating point status is voltage   simulation time is     0.     
     node    =voltage       node    =voltage       node    =voltage

 + 0:inb_0   = 900.0000m  0:inb_1   = 900.0000m  0:inb_2   = 900.0000m
 + 0:outb_00 = 899.9995m  0:outb_10 = 899.9995m  0:outb_20 = 899.9995m
 + 0:outin_00= 428.3553n  0:outin_01= 428.3553n  0:outin_02= 428.3553n
 + 0:outin_10= 899.9995m  0:outin_11= 899.9995m  0:outin_12= 899.9995m
 + 0:outin_20= 428.3614n  0:outin_21= 428.3614n  0:outin_22= 428.3614n
 + 0:outin_30= 899.9996m  0:outin_31= 899.9996m  0:outin_32= 899.9996m
 + 0:outin_40=   4.0533m  0:outin_41=   4.0533m  0:outin_42=   4.0533m
 + 0:vdd     = 900.0000m

 ******  
 $this uut was automatically generated by:

  ******  transient analysis tnom=  25.000 temp=  25.000 *****
 trf_delay_001=   5.2601p  targ=  38.3916p   trig=  33.1315p
 tfr_delay_001=   6.9646p  targ=   1.0910n   trig=   1.0840n
 trf_delay_002=   5.4754p  targ=   2.0409n   trig=   2.0354n
 tfr_delay_002=   7.2232p  targ=   3.0906n   trig=   3.0834n
 trf_delay_003=   6.3902p  targ=   4.0406n   trig=   4.0342n
 tfr_delay_003=   6.6515p  targ=   5.0907n   trig=   5.0840n
 trf_delay_004=   4.8969p  targ=   6.0402n   trig=   6.0353n
 tfr_delay_004=   7.0035p  targ=   7.0909n   trig=   7.0839n
 trf_delay_101=   5.4422p  targ=   1.0964n   trig=   1.0910n
 tfr_delay_101=   5.8709p  targ=  44.2625p   trig=  38.3916p
 trf_delay_102=   5.2023p  targ=   3.0958n   trig=   3.0906n
 tfr_delay_102=   6.0418p  targ=   2.0469n   trig=   2.0409n
 trf_delay_103=   5.6080p  targ=   5.0963n   trig=   5.0907n
 tfr_delay_103=   5.1534p  targ=   4.0457n   trig=   4.0406n
 trf_delay_104=   5.4395p  targ=   7.0964n   trig=   7.0909n
 tfr_delay_104=   6.3468p  targ=   6.0465n   trig=   6.0402n
 trf_delay_201=   2.7413p  targ=  47.0038p   trig=  44.2625p
 tfr_delay_201=   2.6559p  targ=   1.0991n   trig=   1.0964n
 trf_delay_202=   2.4600p  targ=   2.0494n   trig=   2.0469n
 tfr_delay_202=   2.1369p  targ=   3.0979n   trig=   3.0958n
 trf_delay_203=   2.8836p  targ=   4.0486n   trig=   4.0457n
 tfr_delay_203=   3.0896p  targ=   5.0994n   trig=   5.0963n
 trf_delay_204=   2.7431p  targ=   6.0493n   trig=   6.0465n
 tfr_delay_204=   2.5626p  targ=   7.0990n   trig=   7.0964n
 trf_delay_011=   5.2601p  targ=  38.3916p   trig=  33.1315p
 tfr_delay_011=   6.2317p  targ=   2.0908n   trig=   2.0846n
 trf_delay_012=   6.3902p  targ=   4.0406n   trig=   4.0342n
 tfr_delay_012=   6.2460p  targ=   6.0909n   trig=   6.0846n
 trf_delay_111=   4.8977p  targ=   2.0957n   trig=   2.0908n
 tfr_delay_111=   5.8709p  targ=  44.2625p   trig=  38.3916p
 trf_delay_112=   4.8570p  targ=   6.0957n   trig=   6.0909n
 tfr_delay_112=   5.1534p  targ=   4.0457n   trig=   4.0406n
 trf_delay_211=   2.7413p  targ=  47.0038p   trig=  44.2625p
 tfr_delay_211=   3.0521p  targ=   2.0988n   trig=   2.0957n
 trf_delay_212=   2.8836p  targ=   4.0486n   trig=   4.0457n
 tfr_delay_212=   3.0297p  targ=   6.0988n   trig=   6.0957n
 trf_delay_021=   5.2601p  targ=  38.3916p   trig=  33.1315p
 tfr_delay_021=   6.3895p  targ=   4.0909n   trig=   4.0845n
 trf_delay_121=   4.9927p  targ=   4.0958n   trig=   4.0909n
 tfr_delay_121=   5.8709p  targ=  44.2625p   trig=  38.3916p
 trf_delay_221=   2.7413p  targ=  47.0038p   trig=  44.2625p
 tfr_delay_221=   2.8696p  targ=   4.0987n   trig=   4.0958n
x

        time    voltage      voltage    
                 outin_00     outin_10  
    0.            0.         899.9995m  
   10.00000p     -8.3956m    899.8736m  
   20.00000p     64.4422m    859.3111m  
   30.00000p    329.1786m    708.7677m  
   40.00000p    698.9695m    363.2761m  
   50.00000p    884.5944m     27.9296m  
   60.00000p    899.6457m    443.5281u  
   70.00000p    900.0002m      0.       
   80.00000p    899.9996m    633.5097n  
   90.00000p    899.9981m     -1.2089u  
  100.00000p    899.9988m      0.       
  110.00000p    899.9996m    683.1211n  
  120.00000p    900.0003m      1.6291u  
  130.00000p    900.0009m      2.2724u  
  140.00000p    900.0006m      1.9882u  
  150.00000p    900.0004m      1.7040u  
  160.00000p    900.0002m      1.4198u  
  170.00000p    899.9999m      1.1356u  
  180.00000p    899.9997m    851.4163n  
  190.00000p    899.9995m    567.2144n  
  200.00000p    899.9993m      0.       
  210.00000p    899.9990m      0.       
  220.00000p    899.9988m      0.       
  230.00000p    899.9986m   -569.5934n  
  240.00000p    899.9983m   -853.7953n  
  250.00000p    899.9981m     -1.1380u  
  260.00000p    899.9980m     -1.2366u  
  270.00000p    899.9981m     -1.1028u  
  280.00000p    899.9983m   -968.9852n  
  290.00000p    899.9984m   -835.1806n  
  300.00000p    899.9985m   -701.3760n  
  310.00000p    899.9986m   -567.5714n  
  320.00000p    899.9987m      0.       
  330.00000p    899.9988m      0.       
  340.00000p    899.9989m      0.       
  350.00000p    899.9990m      0.       
  360.00000p    899.9991m      0.       
  370.00000p    899.9992m      0.       
  380.00000p    899.9993m      0.       
  390.00000p    899.9994m    502.8656n  
  400.00000p    899.9995m    636.6702n  
  410.00000p    899.9997m    770.4748n  
  420.00000p    899.9998m    904.2794n  
  430.00000p    899.9999m      1.0381u  
  440.00000p    900.0000m      1.1719u  
  450.00000p    900.0001m      1.3057u  
  460.00000p    900.0002m      1.4395u  
  470.00000p    900.0003m      1.5733u  
  480.00000p    900.0004m      1.7071u  
  490.00000p    900.0005m      1.8409u  
  500.00000p    900.0006m      1.9747u  
  510.00000p    900.0007m      2.1085u  
  520.00000p    900.0008m      2.2423u  
  530.00000p    900.0008m      2.2365u  
  540.00000p    900.0008m      2.1475u  
  550.00000p    900.0007m      2.0584u  
  560.00000p    900.0006m      1.9694u  
  570.00000p    900.0005m      1.8804u  
  580.00000p    900.0005m      1.7913u  
  590.00000p    900.0004m      1.7023u  
  600.00000p    900.0003m      1.6132u  
  610.00000p    900.0003m      1.5242u  
  620.00000p    900.0002m      1.4352u  
  630.00000p    900.0001m      1.3461u  
  640.00000p    900.0000m      1.2571u  
  650.00000p    900.0000m      1.1681u  
  660.00000p    899.9999m      1.0790u  
  670.00000p    899.9998m    989.9757n  
  680.00000p    899.9998m    900.9366n  
  690.00000p    899.9997m    811.8975n  
  700.00000p    899.9996m    722.8585n  
  710.00000p    899.9995m    633.8194n  
  720.00000p    899.9995m    544.7803n  
  730.00000p    899.9994m      0.       
  740.00000p    899.9993m      0.       
  750.00000p    899.9993m      0.       
  760.00000p    899.9992m      0.       
  770.00000p    899.9991m      0.       
  780.00000p    899.9990m      0.       
  790.00000p    899.9990m      0.       
  800.00000p    899.9989m      0.       
  810.00000p    899.9988m      0.       
  820.00000p    899.9988m      0.       
  830.00000p    899.9987m      0.       
  840.00000p    899.9986m   -523.6886n  
  850.00000p    899.9985m   -612.7276n  
  860.00000p    899.9985m   -701.7667n  
  870.00000p    899.9984m   -790.8058n  
  880.00000p    899.9983m   -879.8449n  
  890.00000p    899.9982m   -968.8839n  
  900.00000p    899.9982m     -1.0579u  
  910.00000p    899.9981m     -1.1470u  
  920.00000p    899.9980m     -1.2360u  
  930.00000p    899.9981m     -1.0947u  
  940.00000p    899.9984m   -816.1728n  
  950.00000p    899.9986m   -537.6045n  
  960.00000p    899.9988m      0.       
  970.00000p    899.9990m      0.       
  980.00000p    899.9993m      0.       
  990.00000p    899.9995m    576.6684n  
    1.00000n    899.9997m    855.2366n  
    1.01000n    900.0000m      1.1338u  
    1.02000n    900.0002m      1.4124u  
    1.03000n    900.0004m      1.6909u  
    1.04000n    900.0006m      1.9695u  
    1.05000n    900.0009m      2.2481u  
    1.06000n    910.7195m    261.9786u  
    1.07000n    842.0144m     -3.7974m  
    1.08000n    642.3303m     27.3079m  
    1.09000n    190.0520m    366.0215m  
    1.10000n     10.9269m    863.1210m  
    1.11000n    548.0553u    898.8766m  
    1.12000n    844.8442n    900.0039m  
    1.13000n      0.         899.9983m  
    1.14000n      0.         899.9968m  
    1.15000n    615.1517n    900.0002m  
    1.16000n    935.2974n    900.0030m  
    1.17000n    753.6126n    900.0018m  
    1.18000n    571.9277n    900.0006m  
    1.19000n      0.         899.9994m  
    1.20000n      0.         899.9982m  
    1.21000n      0.         899.9970m  
    1.22000n      0.         899.9963m  
    1.23000n      0.         899.9969m  
    1.24000n      0.         899.9974m  
    1.25000n      0.         899.9980m  
    1.26000n      0.         899.9985m  
    1.27000n      0.         899.9991m  
    1.28000n      0.         899.9996m  
    1.29000n    557.2258n    900.0001m  
    1.30000n    647.5842n    900.0007m  
    1.31000n    737.9426n    900.0012m  
    1.32000n    828.3009n    900.0018m  
    1.33000n    918.6593n    900.0023m  
    1.34000n    922.0354n    900.0023m  
    1.35000n    872.4207n    900.0021m  
    1.36000n    822.8060n    900.0018m  
    1.37000n    773.1914n    900.0015m  
    1.38000n    723.5767n    900.0012m  
    1.39000n    673.9620n    900.0009m  
    1.40000n    624.3474n    900.0006m  
    1.41000n    574.7327n    900.0003m  
    1.42000n    525.1180n    900.0001m  
    1.43000n      0.         899.9998m  
    1.44000n      0.         899.9995m  
    1.45000n      0.         899.9992m  
    1.46000n      0.         899.9989m  
    1.47000n      0.         899.9986m  
    1.48000n      0.         899.9983m  
    1.49000n      0.         899.9981m  
    1.50000n      0.         899.9978m  
    1.51000n      0.         899.9975m  
    1.52000n      0.         899.9972m  
    1.53000n      0.         899.9969m  
    1.54000n      0.         899.9966m  
    1.55000n      0.         899.9966m  
    1.56000n      0.         899.9968m  
    1.57000n      0.         899.9969m  
    1.58000n      0.         899.9971m  
    1.59000n      0.         899.9972m  
    1.60000n      0.         899.9974m  
    1.61000n      0.         899.9976m  
    1.62000n      0.         899.9977m  
    1.63000n      0.         899.9979m  
    1.64000n      0.         899.9980m  
    1.65000n      0.         899.9982m  
    1.66000n      0.         899.9984m  
    1.67000n      0.         899.9985m  
    1.68000n      0.         899.9987m  
    1.69000n      0.         899.9988m  
    1.70000n      0.         899.9990m  
    1.71000n      0.         899.9992m  
    1.72000n      0.         899.9993m  
    1.73000n      0.         899.9995m  
    1.74000n      0.         899.9997m  
    1.75000n      0.         899.9998m  
    1.76000n    523.9360n    900.0000m  
    1.77000n    552.4839n    900.0001m  
    1.78000n    581.0319n    900.0003m  
    1.79000n    609.5798n    900.0005m  
    1.80000n    638.1278n    900.0006m  
    1.81000n    666.6758n    900.0008m  
    1.82000n    695.2237n    900.0009m  
    1.83000n    723.7717n    900.0011m  
    1.84000n    752.3196n    900.0013m  
    1.85000n    780.8676n    900.0014m  
    1.86000n    809.4155n    900.0016m  
    1.87000n    837.9635n    900.0017m  
    1.88000n    866.5114n    900.0019m  
    1.89000n    895.0594n    900.0021m  
    1.90000n    923.6074n    900.0022m  
    1.91000n    920.1897n    900.0022m  
    1.92000n    809.6359n    900.0016m  
    1.93000n    699.0822n    900.0010m  
    1.94000n    588.5285n    900.0004m  
    1.95000n      0.         899.9998m  
    1.96000n      0.         899.9992m  
    1.97000n      0.         899.9986m  
    1.98000n      0.         899.9980m  
    1.99000n      0.         899.9974m  
    2.00000n      0.         899.9968m  
    2.01000n     -8.7938m    899.7496m  
    2.02000n     11.5610m    901.5402m  
    2.03000n    211.3865m    797.7943m  
    2.04000n    645.5658m    497.3313m  
    2.05000n    874.6336m     11.5805m  
    2.06000n    898.9319m      1.7300m  
    2.07000n    899.9885m      3.3232u  
    2.08000n    899.9975m    -16.4995u  
    2.09000n    900.0142m     40.1398u  
    2.10000n    900.0175m     53.4590u  
    2.11000n    899.9991m   -680.6933n  
    2.12000n    899.9993m      0.       
    2.13000n    899.9995m    636.1380n  
    2.14000n    899.9998m      1.3525u  
    2.15000n    899.9995m      0.       
    2.16000n    899.9992m      0.       
    2.17000n    899.9991m   -768.1888n  
    2.18000n    899.9991m   -501.1045n  
    2.19000n    899.9992m      0.       
    2.20000n    899.9993m      0.       
    2.21000n    899.9994m      0.       
    2.22000n    899.9995m    567.2325n  
    2.23000n    899.9996m    834.3167n  
    2.24000n    899.9997m      1.1014u  
    2.25000n    899.9998m      1.3685u  
    2.26000n    899.9999m      1.6356u  
    2.27000n    899.9999m      1.6566u  
    2.28000n    899.9998m      1.5454u  
    2.29000n    899.9998m      1.4341u  
    2.30000n    899.9998m      1.3228u  
    2.31000n    899.9997m      1.2116u  
    2.32000n    899.9997m      1.1003u  
    2.33000n    899.9996m    989.0627n  
    2.34000n    899.9996m    877.8011n  
    2.35000n    899.9996m    766.5394n  
    2.36000n    899.9995m    655.2778n  
    2.37000n    899.9995m    544.0162n  
    2.38000n    899.9995m      0.       
    2.39000n    899.9994m      0.       
    2.40000n    899.9994m      0.       
    2.41000n    899.9993m      0.       
    2.42000n    899.9993m      0.       
    2.43000n    899.9993m      0.       
    2.44000n    899.9992m      0.       
    2.45000n    899.9992m      0.       
    2.46000n    899.9992m      0.       
    2.47000n    899.9991m   -568.6002n  
    2.48000n    899.9991m   -679.8618n  
    2.49000n    899.9991m   -791.1234n  
    2.50000n    899.9990m   -856.4190n  
    2.51000n    899.9991m   -791.3705n  
    2.52000n    899.9991m   -726.3221n  
    2.53000n    899.9991m   -661.2737n  
    2.54000n    899.9991m   -596.2252n  
    2.55000n    899.9991m   -531.1768n  
    2.56000n    899.9992m      0.       
    2.57000n    899.9992m      0.       
    2.58000n    899.9992m      0.       
    2.59000n    899.9992m      0.       
    2.60000n    899.9992m      0.       
    2.61000n    899.9993m      0.       
    2.62000n    899.9993m      0.       
    2.63000n    899.9993m      0.       
    2.64000n    899.9993m      0.       
    2.65000n    899.9994m      0.       
    2.66000n    899.9994m      0.       
    2.67000n    899.9994m      0.       
    2.68000n    899.9994m      0.       
    2.69000n    899.9994m      0.       
    2.70000n    899.9995m      0.       
    2.71000n    899.9995m    509.5981n  
    2.72000n    899.9995m    574.6466n  
    2.73000n    899.9995m    639.6950n  
    2.74000n    899.9996m    704.7434n  
    2.75000n    899.9996m    769.7919n  
    2.76000n    899.9996m    834.8403n  
    2.77000n    899.9996m    899.8887n  
    2.78000n    899.9996m    964.9372n  
    2.79000n    899.9997m      1.0300u  
    2.80000n    899.9997m      1.0950u  
    2.81000n    899.9997m      1.1601u  
    2.82000n    899.9997m      1.2251u  
    2.83000n    899.9997m      1.2902u  
    2.84000n    899.9998m      1.3552u  
    2.85000n    899.9998m      1.4203u  
    2.86000n    899.9998m      1.4853u  
    2.87000n    899.9998m      1.5504u  
    2.88000n    899.9999m      1.6154u  
    2.89000n    899.9999m      1.6805u  
    2.90000n    899.9999m      1.6841u  
    2.91000n    899.9998m      1.5137u  
    2.92000n    899.9998m      1.3432u  
    2.93000n    899.9997m      1.1727u  
    2.94000n    899.9997m      1.0023u  
    2.95000n    899.9996m    831.8074n  
    2.96000n    899.9995m    661.3453n  
    2.97000n    899.9995m      0.       
    2.98000n    899.9994m      0.       
    2.99000n    899.9994m      0.       
    3.00000n    899.9993m      0.       
    3.01000n    899.9993m      0.       
    3.02000n    899.9992m      0.       
    3.03000n    899.9991m   -531.8895n  
    3.04000n    899.9991m   -702.3516n  
    3.05000n    899.9990m   -872.8137n  
    3.06000n    910.6161m    264.8952u  
    3.07000n    799.5485m     -5.8009m  
    3.08000n    601.6620m     35.4571m  
    3.09000n    166.0566m    403.3978m  
    3.10000n     10.7677m    878.4287m  
    3.11000n    488.7868u    898.9353m  
    3.12000n     -6.8710u    900.0155m  
    3.13000n      3.6987u    899.9910m  
    3.14000n      0.         900.0003m  
    3.15000n     -1.8202u    900.0063m  
    3.16000n     -1.0002u    900.0038m  
    3.17000n      0.         900.0012m  
    3.18000n    639.9040n    899.9987m  
    3.19000n      1.4599u    899.9961m  
    3.20000n      2.2800u    899.9936m  
    3.21000n      2.4175u    899.9932m  
    3.22000n      2.1598u    899.9940m  
    3.23000n      1.9022u    899.9948m  
    3.24000n      1.6446u    899.9957m  
    3.25000n      1.3870u    899.9965m  
    3.26000n      1.1294u    899.9973m  
    3.27000n    871.7324n    899.9981m  
    3.28000n    614.1089n    899.9990m  
    3.29000n      0.         899.9998m  
    3.30000n      0.         900.0006m  
    3.31000n      0.         900.0014m  
    3.32000n      0.         900.0023m  
    3.33000n   -674.0085n    900.0031m  
    3.34000n   -931.6320n    900.0039m  
    3.35000n     -1.1893u    900.0047m  
    3.36000n     -1.4469u    900.0056m  
    3.37000n     -1.5372u    900.0059m  
    3.38000n     -1.4102u    900.0054m  
    3.39000n     -1.2832u    900.0050m  
    3.40000n     -1.1562u    900.0046m  
    3.41000n     -1.0292u    900.0042m  
    3.42000n   -902.2244n    900.0038m  
    3.43000n   -775.2211n    900.0034m  
    3.44000n   -648.2177n    900.0030m  
    3.45000n   -521.2144n    900.0026m  
    3.46000n      0.         900.0021m  
    3.47000n      0.         900.0017m  
    3.48000n      0.         900.0013m  
    3.49000n      0.         900.0009m  
    3.50000n      0.         900.0005m  
    3.51000n      0.         900.0001m  
    3.52000n      0.         899.9997m  
    3.53000n      0.         899.9992m  
    3.54000n    621.8155n    899.9988m  
    3.55000n    748.8188n    899.9984m  
    3.56000n    875.8221n    899.9980m  
    3.57000n      1.0028u    899.9976m  
    3.58000n      1.1298u    899.9972m  
    3.59000n      1.2568u    899.9968m  
    3.60000n      1.3838u    899.9964m  
    3.61000n      1.5108u    899.9959m  
    3.62000n      1.6378u    899.9955m  
    3.63000n      1.7648u    899.9951m  
    3.64000n      1.8918u    899.9947m  
    3.65000n      2.0189u    899.9943m  
    3.66000n      2.1459u    899.9939m  
    3.67000n      2.2729u    899.9935m  
    3.68000n      2.3999u    899.9931m  
    3.69000n      2.3134u    899.9933m  
    3.70000n      2.1908u    899.9937m  
    3.71000n      2.0682u    899.9941m  
    3.72000n      1.9456u    899.9945m  
    3.73000n      1.8230u    899.9950m  
    3.74000n      1.7004u    899.9954m  
    3.75000n      1.5778u    899.9958m  
    3.76000n      1.4551u    899.9962m  
    3.77000n      1.3325u    899.9966m  
    3.78000n      1.2099u    899.9970m  
    3.79000n      1.0873u    899.9974m  
    3.80000n    964.6909n    899.9978m  
    3.81000n    842.0780n    899.9982m  
    3.82000n    719.4651n    899.9986m  
    3.83000n    596.8523n    899.9990m  
    3.84000n      0.         899.9994m  
    3.85000n      0.         899.9998m  
    3.86000n      0.         900.0002m  
    3.87000n      0.         900.0006m  
    3.88000n      0.         900.0010m  
    3.89000n      0.         900.0014m  
    3.90000n      0.         900.0018m  
    3.91000n      0.         900.0022m  
    3.92000n   -506.6636n    900.0026m  
    3.93000n   -629.2764n    900.0030m  
    3.94000n   -751.8893n    900.0034m  
    3.95000n   -874.5022n    900.0038m  
    3.96000n   -997.1150n    900.0042m  
    3.97000n     -1.1197u    900.0046m  
    3.98000n     -1.2423u    900.0050m  
    3.99000n     -1.3650u    900.0054m  
    4.00000n     -1.4876u    900.0058m  
    4.01000n     53.5798m    901.2164m  
    4.02000n    107.1610m    902.4270m  
    4.03000n    280.7429m    913.3982m  
    4.04000n    745.0231m    509.5171m  
    4.05000n    882.5875m     22.8836m  
    4.06000n    899.2977m    992.6126u  
    4.07000n    900.0041m     -7.3988u  
    4.08000n    899.9979m      3.3726u  
    4.09000n    899.9999m      1.2502u  
    4.10000n    899.9994m    543.6388n  
    4.11000n    899.9995m      0.       
    4.12000n    899.9995m      0.       
    4.13000n    899.9995m      0.       
    4.14000n    899.9995m      0.       
    4.15000n    899.9995m      0.       
    4.16000n    899.9995m      0.       
    4.17000n    899.9995m      0.       
    4.18000n    899.9995m      0.       
    4.19000n    899.9995m      0.       
    4.20000n    899.9995m      0.       
    4.21000n    899.9995m      0.       
    4.22000n    899.9995m      0.       
    4.23000n    899.9995m      0.       
    4.24000n    899.9995m      0.       
    4.25000n    899.9995m      0.       
    4.26000n    899.9995m      0.       
    4.27000n    899.9995m      0.       
    4.28000n    899.9995m      0.       
    4.29000n    899.9995m      0.       
    4.30000n    899.9995m      0.       
    4.31000n    899.9995m      0.       
    4.32000n    899.9995m      0.       
    4.33000n    899.9995m      0.       
    4.34000n    899.9995m      0.       
    4.35000n    899.9995m      0.       
    4.36000n    899.9995m      0.       
    4.37000n    899.9995m      0.       
    4.38000n    899.9995m      0.       
    4.39000n    899.9995m      0.       
    4.40000n    899.9995m      0.       
    4.41000n    899.9995m      0.       
    4.42000n    899.9995m      0.       
    4.43000n    899.9995m      0.       
    4.44000n    899.9995m      0.       
    4.45000n    899.9995m      0.       
    4.46000n    899.9995m      0.       
    4.47000n    899.9995m      0.       
    4.48000n    899.9995m      0.       
    4.49000n    899.9995m      0.       
    4.50000n    899.9995m      0.       
    4.51000n    899.9995m      0.       
    4.52000n    899.9995m      0.       
    4.53000n    899.9995m      0.       
    4.54000n    899.9995m      0.       
    4.55000n    899.9995m      0.       
    4.56000n    899.9995m      0.       
    4.57000n    899.9995m      0.       
    4.58000n    899.9995m      0.       
    4.59000n    899.9995m      0.       
    4.60000n    899.9995m      0.       
    4.61000n    899.9995m      0.       
    4.62000n    899.9995m      0.       
    4.63000n    899.9995m      0.       
    4.64000n    899.9995m      0.       
    4.65000n    899.9995m      0.       
    4.66000n    899.9995m      0.       
    4.67000n    899.9995m      0.       
    4.68000n    899.9995m      0.       
    4.69000n    899.9995m      0.       
    4.70000n    899.9995m      0.       
    4.71000n    899.9995m      0.       
    4.72000n    899.9995m      0.       
    4.73000n    899.9995m      0.       
    4.74000n    899.9995m      0.       
    4.75000n    899.9995m      0.       
    4.76000n    899.9995m      0.       
    4.77000n    899.9995m      0.       
    4.78000n    899.9995m      0.       
    4.79000n    899.9995m      0.       
    4.80000n    899.9995m      0.       
    4.81000n    899.9995m      0.       
    4.82000n    899.9995m      0.       
    4.83000n    899.9995m      0.       
    4.84000n    899.9995m      0.       
    4.85000n    899.9995m      0.       
    4.86000n    899.9995m      0.       
    4.87000n    899.9995m      0.       
    4.88000n    899.9995m      0.       
    4.89000n    899.9995m      0.       
    4.90000n    899.9995m      0.       
    4.91000n    899.9995m      0.       
    4.92000n    899.9995m      0.       
    4.93000n    899.9995m      0.       
    4.94000n    899.9995m      0.       
    4.95000n    899.9995m      0.       
    4.96000n    899.9995m      0.       
    4.97000n    899.9995m      0.       
    4.98000n    899.9995m      0.       
    4.99000n    899.9995m      0.       
    5.00000n    899.9995m      0.       
    5.01000n    899.9995m      0.       
    5.02000n    899.9995m      0.       
    5.03000n    899.9995m      0.       
    5.04000n    899.9995m      0.       
    5.05000n    899.9995m      0.       
    5.06000n    910.3535m    305.0898u  
    5.07000n    893.1643m     -1.2958m  
    5.08000n    639.8690m     42.9569m  
    5.09000n    179.9803m    393.9781m  
    5.10000n     11.6635m    861.0835m  
    5.11000n    666.2311u    898.4403m  
    5.12000n     -2.4054u    899.9881m  
    5.13000n      2.7418u    900.0074m  
    5.14000n      6.9930u    900.0167m  
    5.15000n     -2.3334u    899.9914m  
    5.16000n    -10.4917u    899.9694m  
    5.17000n     -5.2523u    899.9839m  
    5.18000n      0.         899.9984m  
    5.19000n      5.2265u    900.0130m  
    5.20000n     10.4659u    900.0275m  
    5.21000n      9.6113u    900.0251m  
    5.22000n      6.7481u    900.0171m  
    5.23000n      3.8850u    900.0091m  
    5.24000n      1.0219u    900.0010m  
    5.25000n     -1.8412u    899.9930m  
    5.26000n     -4.7044u    899.9850m  
    5.27000n     -7.5675u    899.9770m  
    5.28000n    -10.4306u    899.9690m  
    5.29000n     -9.4748u    899.9716m  
    5.30000n     -7.7456u    899.9765m  
    5.31000n     -6.0165u    899.9814m  
    5.32000n     -4.2874u    899.9862m  
    5.33000n     -2.5583u    899.9911m  
    5.34000n   -829.1498n    899.9960m  
    5.35000n    899.9730n    900.0008m  
    5.36000n      2.6291u    900.0057m  
    5.37000n      4.3582u    900.0106m  
    5.38000n      6.0873u    900.0154m  
    5.39000n      7.8165u    900.0203m  
    5.40000n      9.5456u    900.0252m  
    5.41000n     11.2747u    900.0300m  
    5.42000n     10.9780u    900.0292m  
    5.43000n      9.8575u    900.0260m  
    5.44000n      8.7371u    900.0229m  
    5.45000n      7.6167u    900.0197m  
    5.46000n      6.4962u    900.0165m  
    5.47000n      5.3758u    900.0134m  
    5.48000n      4.2554u    900.0102m  
    5.49000n      3.1349u    900.0071m  
    5.50000n      2.0145u    900.0039m  
    5.51000n    894.0687n    900.0007m  
    5.52000n      0.         899.9976m  
    5.53000n     -1.3468u    899.9944m  
    5.54000n     -2.4672u    899.9913m  
    5.55000n     -3.5877u    899.9881m  
    5.56000n     -4.7081u    899.9849m  
    5.57000n     -5.8285u    899.9818m  
    5.58000n     -6.9490u    899.9786m  
    5.59000n     -8.0694u    899.9755m  
    5.60000n     -9.1898u    899.9723m  
    5.61000n    -10.3102u    899.9691m  
    5.62000n    -10.5778u    899.9684m  
    5.63000n     -9.8203u    899.9705m  
    5.64000n     -9.0628u    899.9727m  
    5.65000n     -8.3053u    899.9748m  
    5.66000n     -7.5477u    899.9770m  
    5.67000n     -6.7902u    899.9791m  
    5.68000n     -6.0327u    899.9812m  
    5.69000n     -5.2752u    899.9834m  
    5.70000n     -4.5176u    899.9855m  
    5.71000n     -3.7601u    899.9876m  
    5.72000n     -3.0026u    899.9898m  
    5.73000n     -2.2450u    899.9919m  
    5.74000n     -1.4875u    899.9941m  
    5.75000n   -729.9923n    899.9962m  
    5.76000n      0.         899.9983m  
    5.77000n    785.0610n    900.0005m  
    5.78000n      1.5426u    900.0026m  
    5.79000n      2.3001u    900.0048m  
    5.80000n      3.0576u    900.0069m  
    5.81000n      3.8152u    900.0090m  
    5.82000n      4.5727u    900.0112m  
    5.83000n      5.3302u    900.0133m  
    5.84000n      6.0877u    900.0155m  
    5.85000n      6.8453u    900.0176m  
    5.86000n      7.6028u    900.0197m  
    5.87000n      8.3603u    900.0219m  
    5.88000n      9.1179u    900.0240m  
    5.89000n      9.8754u    900.0262m  
    5.90000n     10.6329u    900.0283m  
    5.91000n     11.3904u    900.0304m  
    5.92000n     10.4860u    900.0279m  
    5.93000n      7.8079u    900.0203m  
    5.94000n      5.1298u    900.0127m  
    5.95000n      2.4517u    900.0051m  
    5.96000n      0.         899.9976m  
    5.97000n     -2.9045u    899.9900m  
    5.98000n     -5.5826u    899.9824m  
    5.99000n     -8.2607u    899.9748m  
    6.00000n    -10.9388u    899.9672m  
    6.01000n     -8.8305m    899.7493m  
    6.02000n      8.3171m    901.3562m  
    6.03000n    215.8148m    776.0549m  
    6.04000n    651.4521m    458.2051m  
    6.05000n    875.2648m     15.0276m  
    6.06000n    898.9763m      1.5466m  
    6.07000n    899.9862m    -22.8615u  
    6.08000n    900.0017m      1.1206u  
    6.09000n    900.0162m     46.3559u  
    6.10000n    900.0165m     50.7992u  
    6.11000n    899.9991m   -519.7153n  
    6.12000n    899.9993m      0.       
    6.13000n    899.9995m      0.       
    6.14000n    899.9998m      1.4002u  
    6.15000n    899.9995m    620.1361n  
    6.16000n    899.9993m      0.       
    6.17000n    899.9991m   -783.3040n  
    6.18000n    899.9991m   -539.7545n  
    6.19000n    899.9992m      0.       
    6.20000n    899.9993m      0.       
    6.21000n    899.9994m      0.       
    6.22000n    899.9995m      0.       
    6.23000n    899.9995m    677.9933n  
    6.24000n    899.9996m    921.5429n  
    6.25000n    899.9997m      1.1651u  
    6.26000n    899.9998m      1.4086u  
    6.27000n    899.9999m      1.6522u  
    6.28000n    899.9998m      1.5853u  
    6.29000n    899.9998m      1.4855u  
    6.30000n    899.9998m      1.3857u  
    6.31000n    899.9997m      1.2858u  
    6.32000n    899.9997m      1.1860u  
    6.33000n    899.9997m      1.0862u  
    6.34000n    899.9996m    986.3647n  
    6.35000n    899.9996m    886.5405n  
    6.36000n    899.9996m    786.7164n  
    6.37000n    899.9995m    686.8922n  
    6.38000n    899.9995m    587.0680n  
    6.39000n    899.9995m      0.       
    6.40000n    899.9994m      0.       
    6.41000n    899.9994m      0.       
    6.42000n    899.9994m      0.       
    6.43000n    899.9993m      0.       
    6.44000n    899.9993m      0.       
    6.45000n    899.9993m      0.       
    6.46000n    899.9992m      0.       
    6.47000n    899.9992m      0.       
    6.48000n    899.9992m      0.       
    6.49000n    899.9991m   -510.9978n  
    6.50000n    899.9991m   -610.8219n  
    6.51000n    899.9991m   -710.6461n  
    6.52000n    899.9990m   -810.4703n  
    6.53000n    899.9991m   -763.2789n  
    6.54000n    899.9991m   -700.9037n  
    6.55000n    899.9991m   -638.5286n  
    6.56000n    899.9991m   -576.1534n  
    6.57000n    899.9991m   -513.7782n  
    6.58000n    899.9992m      0.       
    6.59000n    899.9992m      0.       
    6.60000n    899.9992m      0.       
    6.61000n    899.9992m      0.       
    6.62000n    899.9992m      0.       
    6.63000n    899.9993m      0.       
    6.64000n    899.9993m      0.       
    6.65000n    899.9993m      0.       
    6.66000n    899.9993m      0.       
    6.67000n    899.9994m      0.       
    6.68000n    899.9994m      0.       
    6.69000n    899.9994m      0.       
    6.70000n    899.9994m      0.       
    6.71000n    899.9994m      0.       
    6.72000n    899.9995m      0.       
    6.73000n    899.9995m      0.       
    6.74000n    899.9995m    546.5995n  
    6.75000n    899.9995m    608.9746n  
    6.76000n    899.9995m    671.3498n  
    6.77000n    899.9996m    733.7249n  
    6.78000n    899.9996m    796.1001n  
    6.79000n    899.9996m    858.4752n  
    6.80000n    899.9996m    920.8504n  
    6.81000n    899.9996m    983.2256n  
    6.82000n    899.9997m      1.0456u  
    6.83000n    899.9997m      1.1080u  
    6.84000n    899.9997m      1.1704u  
    6.85000n    899.9997m      1.2327u  
    6.86000n    899.9997m      1.2951u  
    6.87000n    899.9998m      1.3575u  
    6.88000n    899.9998m      1.4199u  
    6.89000n    899.9998m      1.4822u  
    6.90000n    899.9998m      1.5446u  
    6.91000n    899.9999m      1.6070u  
    6.92000n    899.9999m      1.6694u  
    6.93000n    899.9998m      1.5000u  
    6.94000n    899.9998m      1.3067u  
    6.95000n    899.9997m      1.1135u  
    6.96000n    899.9996m    920.2004n  
    6.97000n    899.9996m    726.9295n  
    6.98000n    899.9995m    533.6587n  
    6.99000n    899.9994m      0.       
    7.00000n    899.9994m      0.       
    7.01000n    899.9993m      0.       
    7.02000n    899.9992m      0.       
    7.03000n    899.9992m      0.       
    7.04000n    899.9991m   -625.9664n  
    7.05000n    899.9990m   -819.2373n  
    7.06000n    910.7077m    262.3074u  
    7.07000n    837.0933m     -4.0386m  
    7.08000n    637.7254m     28.0961m  
    7.09000n    188.6696m    369.3859m  
    7.10000n     10.6473m    864.7166m  
    7.11000n    491.7209u    899.0378m  
    7.12000n      3.7394u    900.0146m  
    7.13000n     -2.7129u    899.9897m  
    7.14000n     -1.0816u    899.9921m  
    7.15000n      2.5727u    900.0056m  
    7.16000n      5.0139u    900.0148m  
    7.17000n      2.9858u    900.0083m  
    7.18000n    957.6972n    900.0017m  
    7.19000n     -1.0704u    899.9952m  
    7.20000n     -3.0985u    899.9887m  
    7.21000n     -4.6866u    899.9835m  
    7.22000n     -3.6342u    899.9868m  
    7.23000n     -2.5818u    899.9900m  
    7.24000n     -1.5294u    899.9932m  
    7.25000n      0.         899.9964m  
    7.26000n    575.3690n    899.9997m  
    7.27000n      1.6278u    900.0029m  
    7.28000n      2.6802u    900.0061m  
    7.29000n      3.7326u    900.0094m  
    7.30000n      4.7850u    900.0126m  
    7.31000n      5.7782u    900.0156m  
    7.32000n      5.1585u    900.0138m  
    7.33000n      4.5387u    900.0119m  
    7.34000n      3.9190u    900.0101m  
    7.35000n      3.2992u    900.0082m  
    7.36000n      2.6795u    900.0063m  
    7.37000n      2.0597u    900.0045m  
    7.38000n      1.4400u    900.0026m  
    7.39000n    820.2477n    900.0008m  
    7.40000n      0.         899.9989m  
    7.41000n      0.         899.9970m  
    7.42000n     -1.0390u    899.9952m  
    7.43000n     -1.6587u    899.9933m  
    7.44000n     -2.2785u    899.9915m  
    7.45000n     -2.8982u    899.9896m  
    7.46000n     -3.5180u    899.9878m  
    7.47000n     -4.1377u    899.9859m  
    7.48000n     -4.7575u    899.9840m  
    7.49000n     -4.7745u    899.9840m  
    7.50000n     -4.3949u    899.9851m  
    7.51000n     -4.0154u    899.9862m  
    7.52000n     -3.6358u    899.9873m  
    7.53000n     -3.2562u    899.9885m  
    7.54000n     -2.8766u    899.9896m  
    7.55000n     -2.4971u    899.9907m  
    7.56000n     -2.1175u    899.9918m  
    7.57000n     -1.7379u    899.9930m  
    7.58000n     -1.3583u    899.9941m  
    7.59000n   -978.7535n    899.9952m  
    7.60000n   -599.1777n    899.9963m  
    7.61000n      0.         899.9975m  
    7.62000n      0.         899.9986m  
    7.63000n    539.5497n    899.9997m  
    7.64000n    919.1255n    900.0008m  
    7.65000n      1.2987u    900.0020m  
    7.66000n      1.6783u    900.0031m  
    7.67000n      2.0579u    900.0042m  
    7.68000n      2.4374u    900.0053m  
    7.69000n      2.8170u    900.0065m  
    7.70000n      3.1966u    900.0076m  
    7.71000n      3.5762u    900.0087m  
    7.72000n      3.9557u    900.0098m  
    7.73000n      4.3353u    900.0110m  
    7.74000n      4.7149u    900.0121m  
    7.75000n      5.0945u    900.0132m  
    7.76000n      5.4740u    900.0143m  
    7.77000n      5.8536u    900.0155m  
    7.78000n      5.4607u    900.0143m  
    7.79000n      4.9816u    900.0129m  
    7.80000n      4.5025u    900.0115m  
    7.81000n      4.0234u    900.0101m  
    7.82000n      3.5443u    900.0087m  
    7.83000n      3.0652u    900.0073m  
    7.84000n      2.5861u    900.0059m  
    7.85000n      2.1070u    900.0045m  
    7.86000n      1.6280u    900.0031m  
    7.87000n      1.1489u    900.0017m  
    7.88000n    669.7543n    900.0003m  
    7.89000n      0.         899.9989m  
    7.90000n      0.         899.9974m  
    7.91000n   -767.5398n    899.9960m  
    7.92000n     -1.2466u    899.9946m  
    7.93000n     -1.7257u    899.9932m  
    7.94000n     -2.2048u    899.9918m  
    7.95000n     -2.6839u    899.9904m  
    7.96000n     -3.1630u    899.9890m  
    7.97000n     -3.6421u    899.9876m  
    7.98000n     -4.1212u    899.9862m  
    7.99000n     -4.6003u    899.9848m  
    8.00000n     -5.0794u    899.9834m  
y
x

        time    voltage      voltage    
                 outin_10     outin_20  
    0.          899.9995m      0.       
   10.00000p    899.8736m     44.2566u  
   20.00000p    859.3111m     -1.4459m  
   30.00000p    708.7677m     -6.7604m  
   40.00000p    363.2761m    168.5128m  
   50.00000p     27.9296m    815.4283m  
   60.00000p    443.5281u    899.4571m  
   70.00000p      0.         900.0015m  
   80.00000p    633.5097n    899.9998m  
   90.00000p     -1.2089u    899.9973m  
  100.00000p      0.         899.9985m  
  110.00000p    683.1211n    899.9996m  
  120.00000p      1.6291u    900.0007m  
  130.00000p      2.2724u    900.0014m  
  140.00000p      1.9882u    900.0011m  
  150.00000p      1.7040u    900.0008m  
  160.00000p      1.4198u    900.0004m  
  170.00000p      1.1356u    900.0001m  
  180.00000p    851.4163n    899.9998m  
  190.00000p    567.2144n    899.9994m  
  200.00000p      0.         899.9991m  
  210.00000p      0.         899.9988m  
  220.00000p      0.         899.9984m  
  230.00000p   -569.5934n    899.9981m  
  240.00000p   -853.7953n    899.9978m  
  250.00000p     -1.1380u    899.9974m  
  260.00000p     -1.2366u    899.9973m  
  270.00000p     -1.1028u    899.9975m  
  280.00000p   -968.9852n    899.9976m  
  290.00000p   -835.1806n    899.9978m  
  300.00000p   -701.3760n    899.9979m  
  310.00000p   -567.5714n    899.9981m  
  320.00000p      0.         899.9983m  
  330.00000p      0.         899.9984m  
  340.00000p      0.         899.9986m  
  350.00000p      0.         899.9987m  
  360.00000p      0.         899.9989m  
  370.00000p      0.         899.9990m  
  380.00000p      0.         899.9992m  
  390.00000p    502.8656n    899.9994m  
  400.00000p    636.6702n    899.9995m  
  410.00000p    770.4748n    899.9997m  
  420.00000p    904.2794n    899.9998m  
  430.00000p      1.0381u    900.0000m  
  440.00000p      1.1719u    900.0001m  
  450.00000p      1.3057u    900.0003m  
  460.00000p      1.4395u    900.0005m  
  470.00000p      1.5733u    900.0006m  
  480.00000p      1.7071u    900.0008m  
  490.00000p      1.8409u    900.0009m  
  500.00000p      1.9747u    900.0011m  
  510.00000p      2.1085u    900.0012m  
  520.00000p      2.2423u    900.0014m  
  530.00000p      2.2365u    900.0014m  
  540.00000p      2.1475u    900.0013m  
  550.00000p      2.0584u    900.0012m  
  560.00000p      1.9694u    900.0011m  
  570.00000p      1.8804u    900.0010m  
  580.00000p      1.7913u    900.0009m  
  590.00000p      1.7023u    900.0008m  
  600.00000p      1.6132u    900.0007m  
  610.00000p      1.5242u    900.0006m  
  620.00000p      1.4352u    900.0005m  
  630.00000p      1.3461u    900.0004m  
  640.00000p      1.2571u    900.0002m  
  650.00000p      1.1681u    900.0001m  
  660.00000p      1.0790u    900.0000m  
  670.00000p    989.9757n    899.9999m  
  680.00000p    900.9366n    899.9998m  
  690.00000p    811.8975n    899.9997m  
  700.00000p    722.8585n    899.9996m  
  710.00000p    633.8194n    899.9995m  
  720.00000p    544.7803n    899.9994m  
  730.00000p      0.         899.9993m  
  740.00000p      0.         899.9992m  
  750.00000p      0.         899.9991m  
  760.00000p      0.         899.9990m  
  770.00000p      0.         899.9989m  
  780.00000p      0.         899.9988m  
  790.00000p      0.         899.9987m  
  800.00000p      0.         899.9986m  
  810.00000p      0.         899.9985m  
  820.00000p      0.         899.9984m  
  830.00000p      0.         899.9983m  
  840.00000p   -523.6886n    899.9982m  
  850.00000p   -612.7276n    899.9980m  
  860.00000p   -701.7667n    899.9979m  
  870.00000p   -790.8058n    899.9978m  
  880.00000p   -879.8449n    899.9977m  
  890.00000p   -968.8839n    899.9976m  
  900.00000p     -1.0579u    899.9975m  
  910.00000p     -1.1470u    899.9974m  
  920.00000p     -1.2360u    899.9973m  
  930.00000p     -1.0947u    899.9975m  
  940.00000p   -816.1728n    899.9978m  
  950.00000p   -537.6045n    899.9981m  
  960.00000p      0.         899.9985m  
  970.00000p      0.         899.9988m  
  980.00000p      0.         899.9991m  
  990.00000p    576.6684n    899.9994m  
    1.00000n    855.2366n    899.9998m  
    1.01000n      1.1338u    900.0001m  
    1.02000n      1.4124u    900.0004m  
    1.03000n      1.6909u    900.0008m  
    1.04000n      1.9695u    900.0011m  
    1.05000n      2.2481u    900.0014m  
    1.06000n    261.9786u    899.9613m  
    1.07000n     -3.7974m    899.7434m  
    1.08000n     27.3079m    902.8276m  
    1.09000n    366.0215m    830.9257m  
    1.10000n    863.1210m    140.6909m  
    1.11000n    898.8766m    724.3093u  
    1.12000n    900.0039m      0.       
    1.13000n    899.9983m      1.6295u  
    1.14000n    899.9968m    635.2123n  
    1.15000n    900.0002m   -723.4394n  
    1.16000n    900.0030m     -1.7788u  
    1.17000n    900.0018m   -895.5116n  
    1.18000n    900.0006m      0.       
    1.19000n    899.9994m    871.1425n  
    1.20000n    899.9982m      1.7545u  
    1.21000n    899.9970m      2.6378u  
    1.22000n    899.9963m      3.1146u  
    1.23000n    899.9969m      2.6075u  
    1.24000n    899.9974m      2.1003u  
    1.25000n    899.9980m      1.5931u  
    1.26000n    899.9985m      1.0860u  
    1.27000n    899.9991m    578.8263n  
    1.28000n    899.9996m      0.       
    1.29000n    900.0001m      0.       
    1.30000n    900.0007m   -942.6553n  
    1.31000n    900.0012m     -1.4498u  
    1.32000n    900.0018m     -1.9570u  
    1.33000n    900.0023m     -2.4641u  
    1.34000n    900.0023m     -2.4698u  
    1.35000n    900.0021m     -2.1700u  
    1.36000n    900.0018m     -1.8702u  
    1.37000n    900.0015m     -1.5704u  
    1.38000n    900.0012m     -1.2706u  
    1.39000n    900.0009m   -970.7335n  
    1.40000n    900.0006m   -670.9155n  
    1.41000n    900.0003m      0.       
    1.42000n    900.0001m      0.       
    1.43000n    899.9998m      0.       
    1.44000n    899.9995m    528.3566n  
    1.45000n    899.9992m    828.1747n  
    1.46000n    899.9989m      1.1280u  
    1.47000n    899.9986m      1.4278u  
    1.48000n    899.9983m      1.7276u  
    1.49000n    899.9981m      2.0274u  
    1.50000n    899.9978m      2.3273u  
    1.51000n    899.9975m      2.6271u  
    1.52000n    899.9972m      2.9269u  
    1.53000n    899.9969m      3.2267u  
    1.54000n    899.9966m      3.5265u  
    1.55000n    899.9966m      3.5546u  
    1.56000n    899.9968m      3.3749u  
    1.57000n    899.9969m      3.1953u  
    1.58000n    899.9971m      3.0156u  
    1.59000n    899.9972m      2.8360u  
    1.60000n    899.9974m      2.6563u  
    1.61000n    899.9976m      2.4767u  
    1.62000n    899.9977m      2.2970u  
    1.63000n    899.9979m      2.1173u  
    1.64000n    899.9980m      1.9377u  
    1.65000n    899.9982m      1.7580u  
    1.66000n    899.9984m      1.5784u  
    1.67000n    899.9985m      1.3987u  
    1.68000n    899.9987m      1.2191u  
    1.69000n    899.9988m      1.0394u  
    1.70000n    899.9990m    859.7386n  
    1.71000n    899.9992m    680.0816n  
    1.72000n    899.9993m    500.4245n  
    1.73000n    899.9995m      0.       
    1.74000n    899.9997m      0.       
    1.75000n    899.9998m      0.       
    1.76000n    900.0000m      0.       
    1.77000n    900.0001m      0.       
    1.78000n    900.0003m   -577.5180n  
    1.79000n    900.0005m   -757.1750n  
    1.80000n    900.0006m   -936.8321n  
    1.81000n    900.0008m     -1.1165u  
    1.82000n    900.0009m     -1.2961u  
    1.83000n    900.0011m     -1.4758u  
    1.84000n    900.0013m     -1.6555u  
    1.85000n    900.0014m     -1.8351u  
    1.86000n    900.0016m     -2.0148u  
    1.87000n    900.0017m     -2.1944u  
    1.88000n    900.0019m     -2.3741u  
    1.89000n    900.0021m     -2.5537u  
    1.90000n    900.0022m     -2.7334u  
    1.91000n    900.0022m     -2.6996u  
    1.92000n    900.0016m     -1.9504u  
    1.93000n    900.0010m     -1.2012u  
    1.94000n    900.0004m      0.       
    1.95000n    899.9998m      0.       
    1.96000n    899.9992m      1.0464u  
    1.97000n    899.9986m      1.7956u  
    1.98000n    899.9980m      2.5448u  
    1.99000n    899.9974m      3.2940u  
    2.00000n    899.9968m      4.0432u  
    2.01000n    899.7496m     45.7025u  
    2.02000n    901.5402m     92.9918u  
    2.03000n    797.7943m     -5.1102m  
    2.04000n    497.3313m     56.0355m  
    2.05000n     11.5805m    691.1180m  
    2.06000n      1.7300m    897.2101m  
    2.07000n      3.3232u    899.9815m  
    2.08000n    -16.4995u    899.9655m  
    2.09000n     40.1398u    900.0989m  
    2.10000n     53.4590u    900.1367m  
    2.11000n   -680.6933n    899.9966m  
    2.12000n      0.         899.9981m  
    2.13000n    636.1380n    900.0000m  
    2.14000n      1.3525u    900.0019m  
    2.15000n      0.         899.9996m  
    2.16000n      0.         899.9974m  
    2.17000n   -768.1888n    899.9964m  
    2.18000n   -501.1045n    899.9970m  
    2.19000n      0.         899.9977m  
    2.20000n      0.         899.9984m  
    2.21000n      0.         899.9991m  
    2.22000n    567.2325n    899.9998m  
    2.23000n    834.3167n    900.0005m  
    2.24000n      1.1014u    900.0012m  
    2.25000n      1.3685u    900.0019m  
    2.26000n      1.6356u    900.0026m  
    2.27000n      1.6566u    900.0026m  
    2.28000n      1.5454u    900.0024m  
    2.29000n      1.4341u    900.0021m  
    2.30000n      1.3228u    900.0018m  
    2.31000n      1.2116u    900.0015m  
    2.32000n      1.1003u    900.0012m  
    2.33000n    989.0627n    900.0009m  
    2.34000n    877.8011n    900.0006m  
    2.35000n    766.5394n    900.0003m  
    2.36000n    655.2778n    900.0000m  
    2.37000n    544.0162n    899.9998m  
    2.38000n      0.         899.9995m  
    2.39000n      0.         899.9992m  
    2.40000n      0.         899.9989m  
    2.41000n      0.         899.9986m  
    2.42000n      0.         899.9983m  
    2.43000n      0.         899.9980m  
    2.44000n      0.         899.9977m  
    2.45000n      0.         899.9974m  
    2.46000n      0.         899.9972m  
[...]
    3.68000n    899.9995m      0.       
    3.69000n    899.9995m      0.       
    3.70000n    899.9995m      0.       
    3.71000n    899.9995m      0.       
    3.72000n    899.9995m      0.       
    3.73000n    899.9995m      0.       
    3.74000n    899.9995m      0.       
    3.75000n    899.9995m      0.       
    3.76000n    899.9995m      0.       
    3.77000n    899.9995m      0.       
    3.78000n    899.9995m      0.       
    3.79000n    899.9995m      0.       
    3.80000n    899.9995m      0.       
    3.81000n    899.9995m      0.       
    3.82000n    899.9995m      0.       
    3.83000n    899.9995m      0.       
    3.84000n    899.9995m      0.       
    3.85000n    899.9995m      0.       
    3.86000n    899.9995m      0.       
    3.87000n    899.9995m      0.       
    3.88000n    899.9995m      0.       
    3.89000n    899.9995m      0.       
    3.90000n    899.9995m      0.       
    3.91000n    899.9995m      0.       
    3.92000n    899.9995m      0.       
    3.93000n    899.9995m      0.       
    3.94000n    899.9995m      0.       
    3.95000n    899.9995m      0.       
    3.96000n    899.9995m      0.       
    3.97000n    899.9995m      0.       
    3.98000n    899.9995m      0.       
    3.99000n    899.9995m      0.       
    4.00000n    899.9995m      0.       
    4.01000n    899.9995m      0.       
    4.02000n    899.9995m      0.       
    4.03000n    899.9995m      0.       
    4.04000n    899.9995m      0.       
    4.05000n    899.9995m      0.       
    4.06000n    899.9710m      6.3457u  
    4.07000n    899.7717m    -20.4900u  
    4.08000n    899.0904m    -38.4752u  
    4.09000n    915.6509m   -874.3076u  
    4.10000n    132.9714m    803.2656m  
    4.11000n    572.6984u    899.8044m  
    4.12000n      0.         899.9987m  
    4.13000n      0.         900.0001m  
    4.14000n      2.5065u    900.0013m  
    4.15000n    937.6328n    899.9997m  
    4.16000n   -631.1981n    899.9982m  
    4.17000n     -1.6897u    899.9971m  
    4.18000n     -1.2486u    899.9976m  
    4.19000n   -807.4189n    899.9981m  
    4.20000n      0.         899.9987m  
    4.21000n      0.         899.9992m  
    4.22000n    515.9819n    899.9997m  
    4.23000n    957.1155n    900.0002m  
    4.24000n      1.3982u    900.0007m  
    4.25000n      1.8394u    900.0012m  
    4.26000n      2.2805u    900.0017m  
    4.27000n      2.5954u    900.0021m  
    4.28000n      2.4596u    900.0019m  
    4.29000n      2.3238u    900.0018m  
    4.30000n      2.1880u    900.0016m  
    4.31000n      2.0522u    900.0014m  
    4.32000n      1.9164u    900.0013m  
    4.33000n      1.7807u    900.0011m  
    4.34000n      1.6449u    900.0009m  
    4.35000n      1.5091u    900.0008m  
    4.36000n      1.3733u    900.0006m  
    4.37000n      1.2375u    900.0004m  
    4.38000n      1.1017u    900.0003m  
    4.39000n    965.9194n    900.0001m  
    4.40000n    830.1306n    899.9999m  
    4.41000n    694.3418n    899.9998m  
    4.42000n    558.5530n    899.9996m  
    4.43000n      0.         899.9995m  
    4.44000n      0.         899.9993m  
    4.45000n      0.         899.9991m  
    4.46000n      0.         899.9990m  
    4.47000n      0.         899.9988m  
    4.48000n      0.         899.9986m  
    4.49000n      0.         899.9985m  
    4.50000n   -527.7574n    899.9983m  
    4.51000n   -663.5462n    899.9981m  
    4.52000n   -799.3350n    899.9980m  
    4.53000n   -935.1239n    899.9978m  
    4.54000n     -1.0709u    899.9976m  
    4.55000n     -1.2067u    899.9975m  
    4.56000n     -1.3425u    899.9973m  
    4.57000n     -1.4783u    899.9972m  
    4.58000n     -1.6141u    899.9970m  
    4.59000n     -1.6060u    899.9970m  
    4.60000n     -1.5001u    899.9971m  
    4.61000n     -1.3941u    899.9973m  
    4.62000n     -1.2881u    899.9974m  
    4.63000n     -1.1821u    899.9975m  
    4.64000n     -1.0761u    899.9977m  
    4.65000n   -970.0615n    899.9978m  
    4.66000n   -864.0636n    899.9979m  
    4.67000n   -758.0658n    899.9980m  
    4.68000n   -652.0679n    899.9982m  
    4.69000n   -546.0700n    899.9983m  
    4.70000n      0.         899.9984m  
    4.71000n      0.         899.9986m  
    4.72000n      0.         899.9987m  
    4.73000n      0.         899.9988m  
    4.74000n      0.         899.9990m  
    4.75000n      0.         899.9991m  
    4.76000n      0.         899.9992m  
    4.77000n      0.         899.9994m  
    4.78000n      0.         899.9995m  
    4.79000n    513.9087n    899.9996m  
    4.80000n    619.9066n    899.9997m  
    4.81000n    725.9045n    899.9999m  
    4.82000n    831.9024n    900.0000m  
    4.83000n    937.9002n    900.0001m  
    4.84000n      1.0439u    900.0003m  
    4.85000n      1.1499u    900.0004m  
    4.86000n      1.2559u    900.0005m  
    4.87000n      1.3619u    900.0007m  
    4.88000n      1.4679u    900.0008m  
    4.89000n      1.5739u    900.0009m  
    4.90000n      1.6799u    900.0010m  
    4.91000n      1.7859u    900.0012m  
    4.92000n      1.8919u    900.0013m  
    4.93000n      1.9979u    900.0014m  
    4.94000n      2.1039u    900.0016m  
    4.95000n      2.2099u    900.0017m  
    4.96000n      2.3159u    900.0018m  
    4.97000n      2.4219u    900.0020m  
    4.98000n      2.5279u    900.0021m  
    4.99000n      2.2026u    900.0017m  
    5.00000n      1.5835u    900.0009m  
    5.01000n    964.4636n    900.0001m  
    5.02000n      0.         899.9993m  
    5.03000n      0.         899.9985m  
    5.04000n   -892.7610n    899.9977m  
    5.05000n     -1.5118u    899.9969m  
    5.06000n      0.         899.9996m  
    5.07000n      0.         899.9996m  
    5.08000n      0.         899.9996m  
    5.09000n      0.         899.9996m  
    5.10000n      0.         899.9996m  
    5.11000n      0.         899.9996m  
    5.12000n      0.         899.9996m  
    5.13000n      0.         899.9996m  
    5.14000n      0.         899.9996m  
    5.15000n      0.         899.9996m  
    5.16000n      0.         899.9996m  
    5.17000n      0.         899.9996m  
    5.18000n      0.         899.9996m  
    5.19000n      0.         899.9996m  
    5.20000n      0.         899.9996m  
    5.21000n      0.         899.9996m  
    5.22000n      0.         899.9996m  
    5.23000n      0.         899.9996m  
    5.24000n      0.         899.9996m  
    5.25000n      0.         899.9996m  
    5.26000n      0.         899.9996m  
    5.27000n      0.         899.9996m  
    5.28000n      0.         899.9996m  
    5.29000n      0.         899.9996m  
    5.30000n      0.         899.9996m  
    5.31000n      0.         899.9996m  
    5.32000n      0.         899.9996m  
    5.33000n      0.         899.9996m  
    5.34000n      0.         899.9996m  
    5.35000n      0.         899.9996m  
    5.36000n      0.         899.9996m  
    5.37000n      0.         899.9996m  
    5.38000n      0.         899.9996m  
    5.39000n      0.         899.9996m  
    5.40000n      0.         899.9996m  
    5.41000n      0.         899.9996m  
    5.42000n      0.         899.9996m  
    5.43000n      0.         899.9996m  
    5.44000n      0.         899.9996m  
    5.45000n      0.         899.9996m  
    5.46000n      0.         899.9996m  
    5.47000n      0.         899.9996m  
    5.48000n      0.         899.9996m  
    5.49000n      0.         899.9996m  
    5.50000n      0.         899.9996m  
    5.51000n      0.         899.9996m  
    5.52000n      0.         899.9996m  
    5.53000n      0.         899.9996m  
    5.54000n      0.         899.9996m  
    5.55000n      0.         899.9996m  
    5.56000n      0.         899.9996m  
    5.57000n      0.         899.9996m  
    5.58000n      0.         899.9996m  
    5.59000n      0.         899.9996m  
    5.60000n      0.         899.9996m  
    5.61000n      0.         899.9996m  
    5.62000n      0.         899.9996m  
    5.63000n      0.         899.9996m  
    5.64000n      0.         899.9996m  
    5.65000n      0.         899.9996m  
    5.66000n      0.         899.9996m  
    5.67000n      0.         899.9996m  
    5.68000n      0.         899.9996m  
    5.69000n      0.         899.9996m  
    5.70000n      0.         899.9996m  
    5.71000n      0.         899.9996m  
    5.72000n      0.         899.9996m  
    5.73000n      0.         899.9996m  
    5.74000n      0.         899.9996m  
    5.75000n      0.         899.9996m  
    5.76000n      0.         899.9996m  
    5.77000n      0.         899.9996m  
    5.78000n      0.         899.9996m  
    5.79000n      0.         899.9996m  
    5.80000n      0.         899.9996m  
    5.81000n      0.         899.9996m  
    5.82000n      0.         899.9996m  
    5.83000n      0.         899.9996m  
    5.84000n      0.         899.9996m  
    5.85000n      0.         899.9996m  
    5.86000n      0.         899.9996m  
    5.87000n      0.         899.9996m  
    5.88000n      0.         899.9996m  
    5.89000n      0.         899.9996m  
    5.90000n      0.         899.9996m  
    5.91000n      0.         899.9996m  
    5.92000n      0.         899.9996m  
    5.93000n      0.         899.9996m  
    5.94000n      0.         899.9996m  
    5.95000n      0.         899.9996m  
    5.96000n      0.         899.9996m  
    5.97000n      0.         899.9996m  
    5.98000n      0.         899.9996m  
    5.99000n      0.         899.9996m  
    6.00000n      0.         899.9996m  
    6.01000n      0.         899.9996m  
    6.02000n      0.         899.9996m  
    6.03000n      0.         899.9996m  
    6.04000n      0.         899.9996m  
    6.05000n      0.         899.9996m  
    6.06000n      0.         899.9996m  
    6.07000n      0.         899.9996m  
    6.08000n      0.         899.9996m  
    6.09000n      0.         899.9996m  
    6.10000n      0.         899.9996m  
    6.11000n      0.         899.9996m  
    6.12000n      0.         899.9996m  
    6.13000n      0.         899.9996m  
    6.14000n      0.         899.9996m  
    6.15000n      0.         899.9996m  
    6.16000n      0.         899.9996m  
    6.17000n      0.         899.9996m  
    6.18000n      0.         899.9996m  
    6.19000n      0.         899.9996m  
    6.20000n      0.         899.9996m  
    6.21000n      0.         899.9996m  
    6.22000n      0.         899.9996m  
    6.23000n      0.         899.9996m  
    6.24000n      0.         899.9996m  
    6.25000n      0.         899.9996m  
    6.26000n      0.         899.9996m  
    6.27000n      0.         899.9996m  
    6.28000n      0.         899.9996m  
    6.29000n      0.         899.9996m  
    6.30000n      0.         899.9996m  
    6.31000n      0.         899.9996m  
    6.32000n      0.         899.9996m  
    6.33000n      0.         899.9996m  
    6.34000n      0.         899.9996m  
    6.35000n      0.         899.9996m  
    6.36000n      0.         899.9996m  
    6.37000n      0.         899.9996m  
    6.38000n      0.         899.9996m  
    6.39000n      0.         899.9996m  
    6.40000n      0.         899.9996m  
    6.41000n      0.         899.9996m  
    6.42000n      0.         899.9996m  
    6.43000n      0.         899.9996m  
    6.44000n      0.         899.9996m  
    6.45000n      0.         899.9996m  
    6.46000n      0.         899.9996m  
    6.47000n      0.         899.9996m  
    6.48000n      0.         899.9996m  
    6.49000n      0.         899.9996m  
    6.50000n      0.         899.9996m  
    6.51000n      0.         899.9996m  
    6.52000n      0.         899.9996m  
    6.53000n      0.         899.9996m  
    6.54000n      0.         899.9996m  
    6.55000n      0.         899.9996m  
    6.56000n      0.         899.9996m  
    6.57000n      0.         899.9996m  
    6.58000n      0.         899.9996m  
    6.59000n      0.         899.9996m  
    6.60000n      0.         899.9996m  
    6.61000n      0.         899.9996m  
    6.62000n      0.         899.9996m  
    6.63000n      0.         899.9996m  
    6.64000n      0.         899.9996m  
    6.65000n      0.         899.9996m  
    6.66000n      0.         899.9996m  
    6.67000n      0.         899.9996m  
    6.68000n      0.         899.9996m  
    6.69000n      0.         899.9996m  
    6.70000n      0.         899.9996m  
    6.71000n      0.         899.9996m  
    6.72000n      0.         899.9996m  
    6.73000n      0.         899.9996m  
    6.74000n      0.         899.9996m  
    6.75000n      0.         899.9996m  
    6.76000n      0.         899.9996m  
    6.77000n      0.         899.9996m  
    6.78000n      0.         899.9996m  
    6.79000n      0.         899.9996m  
    6.80000n      0.         899.9996m  
    6.81000n      0.         899.9996m  
    6.82000n      0.         899.9996m  
    6.83000n      0.         899.9996m  
    6.84000n      0.         899.9996m  
    6.85000n      0.         899.9996m  
    6.86000n      0.         899.9996m  
    6.87000n      0.         899.9996m  
    6.88000n      0.         899.9996m  
    6.89000n      0.         899.9996m  
    6.90000n      0.         899.9996m  
    6.91000n      0.         899.9996m  
    6.92000n      0.         899.9996m  
    6.93000n      0.         899.9996m  
    6.94000n      0.         899.9996m  
    6.95000n      0.         899.9996m  
    6.96000n      0.         899.9996m  
    6.97000n      0.         899.9996m  
    6.98000n      0.         899.9996m  
    6.99000n      0.         899.9996m  
    7.00000n      0.         899.9996m  
    7.01000n      0.         899.9996m  
    7.02000n      0.         899.9996m  
    7.03000n      0.         899.9996m  
    7.04000n      0.         899.9996m  
    7.05000n      0.         899.9996m  
    7.06000n      0.         899.9996m  
    7.07000n      0.         899.9996m  
    7.08000n      0.         899.9996m  
    7.09000n      0.         899.9996m  
    7.10000n      0.         899.9996m  
    7.11000n      0.         899.9996m  
    7.12000n      0.         899.9996m  
    7.13000n      0.         899.9996m  
    7.14000n      0.         899.9996m  
    7.15000n      0.         899.9996m  
    7.16000n      0.         899.9996m  
    7.17000n      0.         899.9996m  
    7.18000n      0.         899.9996m  
    7.19000n      0.         899.9996m  
    7.20000n      0.         899.9996m  
    7.21000n      0.         899.9996m  
    7.22000n      0.         899.9996m  
    7.23000n      0.         899.9996m  
    7.24000n      0.         899.9996m  
    7.25000n      0.         899.9996m  
    7.26000n      0.         899.9996m  
    7.27000n      0.         899.9996m  
    7.28000n      0.         899.9996m  
    7.29000n      0.         899.9996m  
    7.30000n      0.         899.9996m  
    7.31000n      0.         899.9996m  
    7.32000n      0.         899.9996m  
    7.33000n      0.         899.9996m  
    7.34000n      0.         899.9996m  
    7.35000n      0.         899.9996m  
    7.36000n      0.         899.9996m  
    7.37000n      0.         899.9996m  
    7.38000n      0.         899.9996m  
    7.39000n      0.         899.9996m  
    7.40000n      0.         899.9996m  
    7.41000n      0.         899.9996m  
    7.42000n      0.         899.9996m  
    7.43000n      0.         899.9996m  
    7.44000n      0.         899.9996m  
    7.45000n      0.         899.9996m  
    7.46000n      0.         899.9996m  
    7.47000n      0.         899.9996m  
    7.48000n      0.         899.9996m  
    7.49000n      0.         899.9996m  
    7.50000n      0.         899.9996m  
    7.51000n      0.         899.9996m  
    7.52000n      0.         899.9996m  
    7.53000n      0.         899.9996m  
    7.54000n      0.         899.9996m  
    7.55000n      0.         899.9996m  
    7.56000n      0.         899.9996m  
    7.57000n      0.         899.9996m  
    7.58000n      0.         899.9996m  
    7.59000n      0.         899.9996m  
    7.60000n      0.         899.9996m  
    7.61000n      0.         899.9996m  
    7.62000n      0.         899.9996m  
    7.63000n      0.         899.9996m  
    7.64000n      0.         899.9996m  
    7.65000n      0.         899.9996m  
    7.66000n      0.         899.9996m  
    7.67000n      0.         899.9996m  
    7.68000n      0.         899.9996m  
    7.69000n      0.         899.9996m  
    7.70000n      0.         899.9996m  
    7.71000n      0.         899.9996m  
    7.72000n      0.         899.9996m  
    7.73000n      0.         899.9996m  
    7.74000n      0.         899.9996m  
    7.75000n      0.         899.9996m  
    7.76000n      0.         899.9996m  
    7.77000n      0.         899.9996m  
    7.78000n      0.         899.9996m  
    7.79000n      0.         899.9996m  
    7.80000n      0.         899.9996m  
    7.81000n      0.         899.9996m  
    7.82000n      0.         899.9996m  
    7.83000n      0.         899.9996m  
    7.84000n      0.         899.9996m  
    7.85000n      0.         899.9996m  
    7.86000n      0.         899.9996m  
    7.87000n      0.         899.9996m  
    7.88000n      0.         899.9996m  
    7.89000n      0.         899.9996m  
    7.90000n      0.         899.9996m  
    7.91000n      0.         899.9996m  
    7.92000n      0.         899.9996m  
    7.93000n      0.         899.9996m  
    7.94000n      0.         899.9996m  
    7.95000n      0.         899.9996m  
    7.96000n      0.         899.9996m  
    7.97000n      0.         899.9996m  
    7.98000n      0.         899.9996m  
    7.99000n      0.         899.9996m  
    8.00000n      0.         899.9996m  
y
 inv_avg_power00= 168.0928n  from=   0.          to=   8.0000n
 peakpower00=  17.9794u    at=   5.0888n
             from=   0.         to=   8.0000n
 power_avg= 945.6563n  from=   0.          to=   8.0000n
 avg_power=-754.8608n  from=   0.          to=   8.0000n

          ***** job concluded
1****** HSPICE -- F-2011.09-SP2 64-BIT (Feb 27 2012) linux ******               
 ******  
 $this uut was automatically generated by:

  ******  job statistics summary tnom=  25.000 temp=  25.000 *****
  
  
 ******  Machine Information  ******
 CPU:
 model name	: Intel(R) Xeon(R) CPU E5-2650 v4 @ 2.20GHz
 cpu MHz	: 2730.320
  
 OS:
 Linux version 3.10.0-693.17.1.el7.x86_64 (mockbuild@x86-041.build.eng.bos.redha
 t.com) (gcc version 4.8.5 20150623 (Red Hat 4.8.5-16) (GCC) ) #1 SMP Sun Jan 14
  10:36:03 EST 2018


  ******  HSPICE Threads Information  ******

  Command Line Threads Count :     1
  Available CPU Count        :    24
  Actual Threads Count       :     1


  ******  Circuit Statistics  ******
  # nodes       =      83 # elements   =      34
  # resistors   =       0 # capacitors =       0 # inductors   =       0
  # mutual_inds =       0 # vccs       =       0 # vcvs        =       0
  # cccs        =       0 # ccvs       =       0 # volt_srcs   =       4
  # curr_srcs   =       0 # diodes     =       0 # bjts        =       0
  # jfets       =       0 # mosfets    =      30 # U elements  =       0
  # T elements  =       0 # W elements =       0 # B elements  =       0
  # S elements  =       0 # P elements =       0 # va device   =       0
  # vector_srcs =       0


  ******  Runtime Statistics (seconds)  ******

  analysis           time    # points   tot. iter  conv.iter
  op point           0.03           1         128
  transient          0.13         801        1112         249 rev=        14
  readin             0.00
  errchk             0.01
  setup              0.00
  output             0.01


           peak memory used        135.46 megabytes
           total cpu time            0.18 seconds
           total elapsed time        0.44 seconds
           job started at     18:49:41 09/11/2020
           job ended   at     18:49:41 09/11/2020


 lic: Release hspice token(s) 
