$DATA1 SOURCE='HSPICE' VERSION='F-2011.09-SP2 64-BIT'
.TITLE '$this uut was automatically generated by:'
 trf_delay_001    tfr_delay_001    trf_delay_002    tfr_delay_002     
 trf_delay_003    tfr_delay_003    trf_delay_004    tfr_delay_004     
 trf_delay_101    tfr_delay_101    trf_delay_102    tfr_delay_102     
 trf_delay_103    tfr_delay_103    trf_delay_104    tfr_delay_104     
 trf_delay_201    tfr_delay_201    trf_delay_202    tfr_delay_202     
 trf_delay_203    tfr_delay_203    trf_delay_204    tfr_delay_204     
 trf_delay_011    tfr_delay_011    trf_delay_012    tfr_delay_012     
 trf_delay_111    tfr_delay_111    trf_delay_112    tfr_delay_112     
 trf_delay_211    tfr_delay_211    trf_delay_212    tfr_delay_212     
 trf_delay_021    tfr_delay_021    trf_delay_121    tfr_delay_121     
 trf_delay_221    tfr_delay_221    inv_avg_power00  peakpower00       
 power_avg        avg_power        temper           alter#            
  3.742e-12        3.314e-12        3.732e-12       -1.037e-09        
 -1.987e-09       -1.995e-09       -1.996e-09       -9.593e-10        
  4.412e-12        3.380e-12        1.045e-09        4.080e-12        
  2.003e-09        1.994e-09        2.004e-09        2.004e-09        
  1.568e-12        1.075e-12        1.624e-12       -1.045e-09        
 -1.994e-09       -1.998e-09       -1.999e-09       -1.999e-09        
  3.742e-12        4.287e-12        4.297e-12        4.520e-12        
  3.404e-12        3.380e-12        3.591e-12        3.461e-12        
  1.568e-12        2.383e-12        1.586e-12        1.646e-12        
  3.742e-12        4.045e-12        4.251e-12        3.380e-12        
  1.568e-12        1.155e-12        1.211e-06        7.895e-04        
  7.125e-06        5.239e+12         25.0000        1                 
