***** HSPICE -- F-2011.09-SP2 64-BIT (Feb 27 2012) linux ******
 Input File: ptm20lstp.sp
 lic:
 lic: FLEXlm: v10.8
 lic: USER:   iliabautista         HOSTNAME: itn3.rc.usf.edu
 lic: HOSTID:                      PID:      31505
 lic: Using FLEXlm license file:
 lic: 27000@license0.rc.usf.edu
 lic: Checkout 1 hspice
 lic: License/Maintenance for hspice will expire on 18-jul-2021/2019.06
 lic: 1(in_use)/50(total) FLOATING license(s) on SERVER license0.rc.usf.edu
 lic:
 init: begin read circuit files,  cpu clock=  3.00E-02
       option post     =     2.00
 init: end read circuit files,  cpu clock=  3.00E-02 memory=       153 kb
 init: begin check errors,  cpu clock=  3.00E-02
 init: end check errors,  cpu clock=  3.00E-02 memory=       153 kb
 init: begin setup matrix, pivot=     0 cpu clock=  3.00E-02
       establish matrix -- done,  cpu clock=  3.00E-02 memory=       157 kb
       re-order matrix -- done,  cpu clock=  3.00E-02 memory=       156 kb
 init: end setup matrix,  cpu clock=  3.00E-02 memory=       171 kb
 dcop: begin dcop,  cpu clock=  3.00E-02
 dcop: end dcop,  cpu clock=  3.00E-02 memory=       171 kb  tot_iter=       4
 output: ptm20lstp.tr0
 sweep: tran tran0    begin, stop_t=  4.00E-09 #sweeps= 401 cpu clock=  3.00E-02
 tran: time= 4.1265E-10 tot_iter=      64 conv_iter=      22 cpu clock= 4.00E-02
 tran: time= 9.7299E-10 tot_iter=      70 conv_iter=      25 cpu clock= 4.00E-02
 tran: time= 1.2006E-09 tot_iter=     114 conv_iter=      44 cpu clock= 4.00E-02
 tran: time= 1.6447E-09 tot_iter=     147 conv_iter=      53 cpu clock= 4.00E-02
 tran: time= 2.0447E-09 tot_iter=     151 conv_iter=      55 cpu clock= 4.00E-02
 tran: time= 2.4447E-09 tot_iter=     155 conv_iter=      57 cpu clock= 4.00E-02
 tran: time= 2.8447E-09 tot_iter=     159 conv_iter=      59 cpu clock= 4.00E-02
 tran: time= 3.2447E-09 tot_iter=     163 conv_iter=      61 cpu clock= 4.00E-02
 tran: time= 3.6447E-09 tot_iter=     167 conv_iter=      63 cpu clock= 4.00E-02
 tran: time= 4.0000E-09 tot_iter=     171 conv_iter=      65 cpu clock= 4.00E-02
 sweep: tran tran0    end,  cpu clock=  4.00E-02 memory=       171 kb
>info:         ***** hspice job concluded
 lic: Release hspice token(s)
