***** HSPICE -- F-2011.09-SP2 64-BIT (Feb 27 2012) linux ******
 Input File: ptm20hp.sp
 lic:
 lic: FLEXlm: v10.8
 lic: USER:   iliabautista         HOSTNAME: itn1.rc.usf.edu
 lic: HOSTID:                      PID:      182854
 lic: Using FLEXlm license file:
 lic: 27000@license0.rc.usf.edu
 lic: Checkout 1 hspice
 lic: License/Maintenance for hspice will expire on 18-jul-2021/2019.06
 lic: 1(in_use)/50(total) FLOATING license(s) on SERVER license0.rc.usf.edu
 lic:
 init: begin read circuit files,  cpu clock=  2.00E-02
       option post     =     2.00
 init: end read circuit files,  cpu clock=  2.00E-02 memory=       155 kb
 init: begin check errors,  cpu clock=  2.00E-02
 **warning**  No DC path to ground from node        0:                outin_30
 init: end check errors,  cpu clock=  2.00E-02 memory=       287 kb
 init: begin setup matrix, pivot=     0 cpu clock=  2.00E-02
       establish matrix -- done,  cpu clock=  2.00E-02 memory=       316 kb
       re-order matrix -- done,  cpu clock=  2.00E-02 memory=       311 kb
 init: end setup matrix,  cpu clock=  2.00E-02 memory=       366 kb
 dcop: begin dcop,  cpu clock=  2.00E-02
 dcop: end dcop,  cpu clock=  4.00E-02 memory=       366 kb  tot_iter=     113
 output: ptm20hp.mt0
 sweep: tran tran0    begin, stop_t=  4.00E-09 #sweeps= 401 cpu clock=  4.00E-02
 tran: time= 4.0477E-10 tot_iter=     136 conv_iter=      22 cpu clock= 6.00E-02
 tran: time= 8.0477E-10 tot_iter=     140 conv_iter=      24 cpu clock= 6.00E-02
 tran: time= 1.2757E-09 tot_iter=     276 conv_iter=      47 cpu clock= 7.00E-02
 tran: time= 1.6757E-09 tot_iter=     280 conv_iter=      49 cpu clock= 7.00E-02
 tran: time= 2.0000E-09 tot_iter=     284 conv_iter=      51 cpu clock= 7.00E-02
 tran: time= 2.5028E-09 tot_iter=     848 conv_iter=     113 cpu clock= 1.10E-01
 tran: time= 2.9028E-09 tot_iter=     852 conv_iter=     115 cpu clock= 1.10E-01
 tran: time= 3.2032E-09 tot_iter=     985 conv_iter=     134 cpu clock= 1.20E-01
 tran: time= 3.7161E-09 tot_iter=     991 conv_iter=     137 cpu clock= 1.20E-01
 tran: time= 4.0000E-09 tot_iter=     995 conv_iter=     139 cpu clock= 1.20E-01
 sweep: tran tran0    end,  cpu clock=  1.20E-01 memory=       367 kb
>info:         ***** hspice job concluded
 lic: Release hspice token(s)
