***** HSPICE -- F-2011.09-SP2 64-BIT (Feb 27 2012) linux ******
 Input File: ptm20lstp.sp
 lic:
 lic: FLEXlm: v10.8
 lic: USER:   iliabautista         HOSTNAME: itn1.rc.usf.edu
 lic: HOSTID:                      PID:      182885
 lic: Using FLEXlm license file:
 lic: 27000@license0.rc.usf.edu
 lic: Checkout 1 hspice
 lic: License/Maintenance for hspice will expire on 18-jul-2021/2019.06
 lic: 1(in_use)/50(total) FLOATING license(s) on SERVER license0.rc.usf.edu
 lic:
 init: begin read circuit files,  cpu clock=  3.00E-02
       option post     =     2.00
 init: end read circuit files,  cpu clock=  3.00E-02 memory=       155 kb
 init: begin check errors,  cpu clock=  3.00E-02
 **warning**  No DC path to ground from node        0:                outin_30
 init: end check errors,  cpu clock=  3.00E-02 memory=       287 kb
 init: begin setup matrix, pivot=     0 cpu clock=  3.00E-02
       establish matrix -- done,  cpu clock=  3.00E-02 memory=       316 kb
       re-order matrix -- done,  cpu clock=  3.00E-02 memory=       311 kb
 init: end setup matrix,  cpu clock=  3.00E-02 memory=       366 kb
 dcop: begin dcop,  cpu clock=  3.00E-02
 dcop: end dcop,  cpu clock=  5.00E-02 memory=       366 kb  tot_iter=     128
 output: ptm20lstp.mt0
 sweep: tran tran0    begin, stop_t=  4.00E-09 #sweeps= 401 cpu clock=  5.00E-02
 tran: time= 4.5178E-10 tot_iter=     124 conv_iter=      20 cpu clock= 7.00E-02
 tran: time= 8.5178E-10 tot_iter=     128 conv_iter=      22 cpu clock= 7.00E-02
 tran: time= 1.2229E-09 tot_iter=     267 conv_iter=      44 cpu clock= 8.00E-02
 tran: time= 1.7900E-09 tot_iter=     273 conv_iter=      47 cpu clock= 8.00E-02
 tran: time= 2.0000E-09 tot_iter=     275 conv_iter=      48 cpu clock= 8.00E-02
 tran: time= 2.5605E-09 tot_iter=     420 conv_iter=      84 cpu clock= 9.00E-02
 tran: time= 2.9605E-09 tot_iter=     424 conv_iter=      86 cpu clock= 9.00E-02
 tran: time= 3.2386E-09 tot_iter=     485 conv_iter=     104 cpu clock= 9.00E-02
 tran: time= 3.6128E-09 tot_iter=     489 conv_iter=     106 cpu clock= 9.00E-02
 tran: time= 4.0000E-09 tot_iter=     493 conv_iter=     108 cpu clock= 9.00E-02
 sweep: tran tran0    end,  cpu clock=  9.00E-02 memory=       367 kb
>info:         ***** hspice job concluded
 lic: Release hspice token(s)
