$DATA1 SOURCE='HSPICE' VERSION='F-2011.09-SP2 64-BIT'
.TITLE '$this uut was automatically generated by:'
 inv_avg_power00  peakpower00      inv_avg_power10  peakpower10       
 inv_avg_power01  peakpower01      inv_avg_power11  peakpower11       
 uut_grid_avg_power uut_grid_max_power source_power      
 trf_delay_001    tfr_delay_001    trf_delay_002    tfr_delay_002     
 trf_delay_101    tfr_delay_101    trf_delay_102    tfr_delay_102     
 trf_delay_011    tfr_delay_011    trf_delay_111    tfr_delay_111     
 temper           alter#            
  1.727e-06        8.907e-04        2.653e-07        1.014e-04        
  1.365e-06        6.893e-04        1.793e-07        5.042e-05        
  3.536e-06        9.923e-04        5.085e-06        3.982e-12        
  5.138e-12        3.992e-12        1.044e-09        8.602e-13        
  3.925e-13       -1.044e-09        2.064e-12        3.982e-12        
  4.390e-12        1.892e-12        3.925e-13         25.0000         
 1                 
