$DATA1 SOURCE='HSPICE' VERSION='F-2011.09-SP2 64-BIT'
.TITLE '$this uut was automatically generated by:'
 inv_avg_power00  peakpower00      inv_avg_power10  peakpower10       
 inv_avg_power01  peakpower01      inv_avg_power11  peakpower11       
 uut_grid_avg_power uut_grid_max_power source_power      
 trf_delay_001    tfr_delay_001    trf_delay_002    tfr_delay_002     
 trf_delay_101    tfr_delay_101    trf_delay_102    tfr_delay_102     
 trf_delay_011    tfr_delay_011    trf_delay_111    tfr_delay_111     
 temper           alter#            
  1.721e-07        1.867e-05        6.108e-08        1.322e-05        
  9.180e-08        1.885e-05        3.410e-08        1.146e-05        
  3.591e-07        4.186e-05        5.900e-07        5.364e-12        
  6.875e-12        6.493e-12        6.733e-12        3.196e-12        
  2.430e-12        1.698e-12        2.925e-12        5.364e-12        
  7.261e-12        3.068e-12        2.430e-12         25.0000         
 1                 
