$DATA1 SOURCE='HSPICE' VERSION='F-2011.09-SP2 64-BIT'
.TITLE '$this uut was automatically generated by:'
 inv_avg_power0   peakpower0       trf_delay_01     tfr_delay_01      
 trf_delay_02     tfr_delay_02     trf_delay_03     tfr_delay_03      
 trf_delay_04     tfr_delay_04     inv_avg_power1   peakpower1        
 trf_delay_11     tfr_delay_11     trf_delay_12     tfr_delay_12      
 inv_avg_power2   peakpower2       trf_delay_21     tfr_delay_21      
 power_avg        avg_power        temper           alter#            
  1.047e-06        9.223e-04        5.623e-12        6.701e-12        
  5.936e-12        1.043e-09        1.991e-09        2.007e-09        
  2.006e-09        2.007e-09        2.675e-07        3.586e-05        
  5.623e-12        6.802e-12        6.013e-12        7.214e-12        
  1.691e-07        3.448e-05        5.623e-12        4.821e-12        
  3.512e-06       -1.060e+08         25.0000        1                 
