***** HSPICE -- F-2011.09-SP2 64-BIT (Feb 27 2012) linux ******
 Input File: ptm20lstp.sp
 lic:
 lic: FLEXlm: v10.8
 lic: USER:   iliabautista         HOSTNAME: itn2.rc.usf.edu
 lic: HOSTID:                      PID:      123909
 lic: Using FLEXlm license file:
 lic: 27000@license0.rc.usf.edu
 lic: Checkout 1 hspice
 lic: License/Maintenance for hspice will expire on 18-jul-2021/2019.06
 lic: 1(in_use)/50(total) FLOATING license(s) on SERVER license0.rc.usf.edu
 lic:
 init: begin read circuit files,  cpu clock=  2.00E-02
       option post     =     2.00
 init: end read circuit files,  cpu clock=  2.00E-02 memory=       154 kb
 init: begin check errors,  cpu clock=  2.00E-02
 init: end check errors,  cpu clock=  3.00E-02 memory=       154 kb
 init: begin setup matrix, pivot=     0 cpu clock=  3.00E-02
       establish matrix -- done,  cpu clock=  3.00E-02 memory=       165 kb
       re-order matrix -- done,  cpu clock=  3.00E-02 memory=       163 kb
 init: end setup matrix,  cpu clock=  3.00E-02 memory=       189 kb
 dcop: begin dcop,  cpu clock=  3.00E-02
 dcop: end dcop,  cpu clock=  3.00E-02 memory=       189 kb  tot_iter=       4
 output: ptm20lstp.mt0
 sweep: tran tran0    begin, stop_t=  4.00E-09 #sweeps= 401 cpu clock=  3.00E-02
 tran: time= 4.0896E-10 tot_iter=     129 conv_iter=      37 cpu clock= 4.00E-02
 tran: time= 9.5875E-10 tot_iter=     135 conv_iter=      40 cpu clock= 4.00E-02
 tran: time= 1.2225E-09 tot_iter=     242 conv_iter=      68 cpu clock= 4.00E-02
 tran: time= 1.6330E-09 tot_iter=     290 conv_iter=      81 cpu clock= 5.00E-02
 tran: time= 2.0000E-09 tot_iter=     294 conv_iter=      83 cpu clock= 5.00E-02
 tran: time= 2.4386E-09 tot_iter=     455 conv_iter=     127 cpu clock= 5.00E-02
 tran: time= 2.8141E-09 tot_iter=     459 conv_iter=     129 cpu clock= 6.00E-02
 tran: time= 3.2359E-09 tot_iter=     560 conv_iter=     158 cpu clock= 6.00E-02
 tran: time= 3.6956E-09 tot_iter=     578 conv_iter=     163 cpu clock= 6.00E-02
 tran: time= 4.0000E-09 tot_iter=     582 conv_iter=     165 cpu clock= 6.00E-02
 sweep: tran tran0    end,  cpu clock=  6.00E-02 memory=       189 kb
>info:         ***** hspice job concluded
 lic: Release hspice token(s)
