***** HSPICE -- F-2011.09-SP2 64-BIT (Feb 27 2012) linux ******
 Input File: ptm20lstp.sp
 lic:
 lic: FLEXlm: v10.8
 lic: USER:   iliabautista         HOSTNAME: itn2.rc.usf.edu
 lic: HOSTID:                      PID:      17706
 lic: Using FLEXlm license file:
 lic: 27000@license0.rc.usf.edu
 lic: Checkout 1 hspice
 lic: License/Maintenance for hspice will expire on 18-jul-2021/2019.06
 lic: 1(in_use)/50(total) FLOATING license(s) on SERVER license0.rc.usf.edu
 lic:
 init: begin read circuit files,  cpu clock=  2.00E-02
       option post     =     2.00
 init: end read circuit files,  cpu clock=  2.00E-02 memory=       158 kb
 init: begin check errors,  cpu clock=  2.00E-02
 **warning**  No DC path to ground from node        0:                outin_40
 init: end check errors,  cpu clock=  3.00E-02 memory=       424 kb
 init: begin setup matrix, pivot=     0 cpu clock=  3.00E-02
       establish matrix -- done,  cpu clock=  3.00E-02 memory=       478 kb
       re-order matrix -- done,  cpu clock=  3.00E-02 memory=       468 kb
 init: end setup matrix,  cpu clock=  3.00E-02 memory=       563 kb
 dcop: begin dcop,  cpu clock=  3.00E-02
 dcop: end dcop,  cpu clock=  6.00E-02 memory=       563 kb  tot_iter=     128
 output: ptm20lstp.mt0
 sweep: tran tran0    begin, stop_t=  8.00E-09 #sweeps= 801 cpu clock=  6.00E-02
 tran: time= 9.2374E-10 tot_iter=     152 conv_iter=      24 cpu clock= 1.00E-01
 tran: time= 1.9077E-09 tot_iter=     260 conv_iter=      48 cpu clock= 1.10E-01
 tran: time= 2.4974E-09 tot_iter=     431 conv_iter=      86 cpu clock= 1.20E-01
 tran: time= 3.2037E-09 tot_iter=     527 conv_iter=     109 cpu clock= 1.30E-01
 tran: time= 4.0000E-09 tot_iter=     533 conv_iter=     112 cpu clock= 1.30E-01
 tran: time= 4.9841E-09 tot_iter=     720 conv_iter=     157 cpu clock= 1.60E-01
 tran: time= 5.6155E-09 tot_iter=     812 conv_iter=     181 cpu clock= 1.60E-01
 tran: time= 6.5209E-09 tot_iter=     991 conv_iter=     220 cpu clock= 1.80E-01
 tran: time= 7.2086E-09 tot_iter=    1099 conv_iter=     244 cpu clock= 1.90E-01
 tran: time= 8.0000E-09 tot_iter=    1109 conv_iter=     248 cpu clock= 1.90E-01
 sweep: tran tran0    end,  cpu clock=  1.90E-01 memory=       564 kb
>info:         ***** hspice job concluded
 lic: Release hspice token(s)
