***** HSPICE -- F-2011.09-SP2 64-BIT (Feb 27 2012) linux ******
 Input File: ptm20hp.sp
 lic:
 lic: FLEXlm: v10.8
 lic: USER:   iliabautista         HOSTNAME: itn0.rc.usf.edu
 lic: HOSTID:                      PID:      17483
 lic: Using FLEXlm license file:
 lic: 27000@license0.rc.usf.edu
 lic: Checkout 1 hspice
 lic: License/Maintenance for hspice will expire on 18-jul-2021/2019.06
 lic: 1(in_use)/50(total) FLOATING license(s) on SERVER license0.rc.usf.edu
 lic:
 init: begin read circuit files,  cpu clock=  2.00E-02
       option post     =     2.00
 init: end read circuit files,  cpu clock=  3.00E-02 memory=       154 kb
 init: begin check errors,  cpu clock=  3.00E-02
 init: end check errors,  cpu clock=  3.00E-02 memory=       154 kb
 init: begin setup matrix, pivot=     0 cpu clock=  3.00E-02
       establish matrix -- done,  cpu clock=  3.00E-02 memory=       165 kb
       re-order matrix -- done,  cpu clock=  3.00E-02 memory=       163 kb
 init: end setup matrix,  cpu clock=  3.00E-02 memory=       189 kb
 dcop: begin dcop,  cpu clock=  3.00E-02
 dcop: end dcop,  cpu clock=  3.00E-02 memory=       189 kb  tot_iter=       5
 output: ptm20hp.mt0
 sweep: tran tran0    begin, stop_t=  4.00E-09 #sweeps= 401 cpu clock=  3.00E-02
 tran: time= 4.3255E-10 tot_iter=     122 conv_iter=      34 cpu clock= 4.00E-02
 tran: time= 8.2725E-10 tot_iter=     126 conv_iter=      36 cpu clock= 4.00E-02
 tran: time= 1.2268E-09 tot_iter=     269 conv_iter=      74 cpu clock= 5.00E-02
 tran: time= 1.6745E-09 tot_iter=     282 conv_iter=      79 cpu clock= 5.00E-02
 tran: time= 2.0000E-09 tot_iter=     286 conv_iter=      81 cpu clock= 5.00E-02
 tran: time= 2.4717E-09 tot_iter=     419 conv_iter=     117 cpu clock= 6.00E-02
 tran: time= 2.8717E-09 tot_iter=     423 conv_iter=     119 cpu clock= 6.00E-02
 tran: time= 3.2049E-09 tot_iter=     557 conv_iter=     154 cpu clock= 7.00E-02
 tran: time= 3.7526E-09 tot_iter=     573 conv_iter=     160 cpu clock= 7.00E-02
 tran: time= 4.0000E-09 tot_iter=     577 conv_iter=     162 cpu clock= 7.00E-02
 sweep: tran tran0    end,  cpu clock=  7.00E-02 memory=       189 kb
>info:         ***** hspice job concluded
 lic: Release hspice token(s)
