***** HSPICE -- F-2011.09-SP2 64-BIT (Feb 27 2012) linux ******
 Input File: ptm20lstp.sp
 lic:
 lic: FLEXlm: v10.8
 lic: USER:   iliabautista         HOSTNAME: itn1.rc.usf.edu
 lic: HOSTID:                      PID:      106234
 lic: Using FLEXlm license file:
 lic: 27000@license0.rc.usf.edu
 lic: Checkout 1 hspice
 lic: License/Maintenance for hspice will expire on 18-jul-2021/2019.06
 lic: 1(in_use)/50(total) FLOATING license(s) on SERVER license0.rc.usf.edu
 lic:
 init: begin read circuit files,  cpu clock=  2.00E-02
       option post     =     2.00
 init: end read circuit files,  cpu clock=  3.00E-02 memory=       156 kb
 init: begin check errors,  cpu clock=  3.00E-02
 init: end check errors,  cpu clock=  4.00E-02 memory=       157 kb
 init: begin setup matrix, pivot=     0 cpu clock=  4.00E-02
       establish matrix -- done,  cpu clock=  4.00E-02 memory=       178 kb
       re-order matrix -- done,  cpu clock=  4.00E-02 memory=       174 kb
 init: end setup matrix,  cpu clock=  4.00E-02 memory=       217 kb
 dcop: begin dcop,  cpu clock=  4.00E-02
 dcop: end dcop,  cpu clock=  4.00E-02 memory=       217 kb  tot_iter=       4
 output: ptm20lstp.mt0
 sweep: tran tran0    begin, stop_t=  8.00E-09 #sweeps= 801 cpu clock=  4.00E-02
 tran: time= 9.3413E-10 tot_iter=      89 conv_iter=      23 cpu clock= 5.00E-02
 tran: time= 1.8344E-09 tot_iter=     181 conv_iter=      47 cpu clock= 6.00E-02
 tran: time= 2.4242E-09 tot_iter=     281 conv_iter=      72 cpu clock= 7.00E-02
 tran: time= 3.2121E-09 tot_iter=     387 conv_iter=     101 cpu clock= 8.00E-02
 tran: time= 4.0000E-09 tot_iter=     396 conv_iter=     105 cpu clock= 9.00E-02
 tran: time= 5.0500E-09 tot_iter=     507 conv_iter=     134 cpu clock= 1.00E-01
 tran: time= 5.7643E-09 tot_iter=     589 conv_iter=     155 cpu clock= 1.10E-01
 tran: time= 6.4841E-09 tot_iter=     704 conv_iter=     185 cpu clock= 1.20E-01
 tran: time= 7.2290E-09 tot_iter=     782 conv_iter=     207 cpu clock= 1.30E-01
 tran: time= 8.0000E-09 tot_iter=     792 conv_iter=     211 cpu clock= 1.30E-01
 sweep: tran tran0    end,  cpu clock=  1.30E-01 memory=       217 kb
>info:         ***** hspice job concluded
 lic: Release hspice token(s)
