***** HSPICE -- F-2011.09-SP2 64-BIT (Feb 27 2012) linux ******
 Input File: ptm20hp.sp
 lic:
 lic: FLEXlm: v10.8
 lic: USER:   iliabautista         HOSTNAME: itn3.rc.usf.edu
 lic: HOSTID:                      PID:      5062
 lic: Using FLEXlm license file:
 lic: 27000@license0.rc.usf.edu
 lic: Checkout 1 hspice
 lic: License/Maintenance for hspice will expire on 18-jul-2021/2019.06
 lic: 1(in_use)/50(total) FLOATING license(s) on SERVER license0.rc.usf.edu
 lic:
 init: begin read circuit files,  cpu clock=  3.00E-02
       option post     =     2.00
 init: end read circuit files,  cpu clock=  3.00E-02 memory=       156 kb
 init: begin check errors,  cpu clock=  3.00E-02
 **warning**  No DC path to ground from node        0:                outin_30
 init: end check errors,  cpu clock=  4.00E-02 memory=       288 kb
 init: begin setup matrix, pivot=     0 cpu clock=  4.00E-02
       establish matrix -- done,  cpu clock=  4.00E-02 memory=       317 kb
       re-order matrix -- done,  cpu clock=  4.00E-02 memory=       312 kb
 init: end setup matrix,  cpu clock=  4.00E-02 memory=       367 kb
 dcop: begin dcop,  cpu clock=  4.00E-02
 dcop: end dcop,  cpu clock=  6.00E-02 memory=       367 kb  tot_iter=     113
 output: ptm20hp.mt0
 sweep: tran tran0    begin, stop_t=  4.00E-09 #sweeps= 401 cpu clock=  6.00E-02
 tran: time= 4.0477E-10 tot_iter=     136 conv_iter=      22 cpu clock= 7.00E-02
 tran: time= 8.0477E-10 tot_iter=     140 conv_iter=      24 cpu clock= 7.00E-02
 tran: time= 1.2757E-09 tot_iter=     276 conv_iter=      47 cpu clock= 8.00E-02
 tran: time= 1.6757E-09 tot_iter=     280 conv_iter=      49 cpu clock= 8.00E-02
 tran: time= 2.0000E-09 tot_iter=     284 conv_iter=      51 cpu clock= 8.00E-02
 tran: time= 2.5554E-09 tot_iter=     807 conv_iter=     112 cpu clock= 1.20E-01
 tran: time= 2.9554E-09 tot_iter=     812 conv_iter=     114 cpu clock= 1.20E-01
 tran: time= 3.2322E-09 tot_iter=     916 conv_iter=     140 cpu clock= 1.30E-01
 tran: time= 3.7957E-09 tot_iter=     922 conv_iter=     143 cpu clock= 1.30E-01
 tran: time= 4.0000E-09 tot_iter=     924 conv_iter=     144 cpu clock= 1.30E-01
 sweep: tran tran0    end,  cpu clock=  1.30E-01 memory=       368 kb
>info:         ***** hspice job concluded
 lic: Release hspice token(s)
