 ****** HSPICE -- F-2011.09-SP2 64-BIT (Feb 27 2012) linux ******               
  Copyright (C) 2011 Synopsys, Inc. All Rights Reserved.                        
  Unpublished-rights reserved under US copyright laws.
  This program is protected by law and is subject to the
  terms and conditions of the license agreement from Synopsys.
  Use of this program is your acceptance to be bound by the
  license agreement. HSPICE is the trademark of Synopsys, Inc.
  Input File: ptm20lstp.sp                                                      
  Command line options: ptm20lstp.sp
 lic:  
 lic: FLEXlm: v10.8 
 lic: USER:   iliabautista         HOSTNAME: itn3.rc.usf.edu 
 lic: HOSTID:                      PID:      89275 
 lic: Using FLEXlm license file: 
 lic: 27000@license0.rc.usf.edu 
 lic: Checkout 1 hspice 
 lic: License/Maintenance for hspice will expire on 18-jul-2021/2019.06 
 lic: 1(in_use)/50(total) FLOATING license(s) on SERVER license0.rc.usf.edu 
 lic:   
  **warning** (../modelfiles/lstp/20nfet.pm:4) Model nfet device geometries will not be checked against the limits set by lmin, lmax, nfinmin and nfinmax. To enable this check, add a period(.) to the model name(i.e. enable model selector).
1****** HSPICE -- F-2011.09-SP2 64-BIT (Feb 27 2012) linux ******               
 ******  
 $this uut was automatically generated by:

  ******  circuit name directory
 circuit number to circuit name directory
   number circuitname                     definition         multiplier
        0 main circuit
        1 xinput_0.                       inverter           1.00 
        2 xinput_1.                       inverter           1.00 
        3 xinverter00.                    inverter           1.00 
        4 xinverter10.                    inverter           1.00 
        5 xinverter01.                    inverter           1.00 
        6 xinverter11.                    inverter           1.00 
        7 xoutput_00.                     inverter           1.00 
        8 xoutput_10.                     inverter           1.00 
        9 xinput_0.xpfet.                 pfet               1.00 
       10 xinput_0.xnfet.                 nfet               1.00 
       11 xinput_1.xpfet.                 pfet               1.00 
       12 xinput_1.xnfet.                 nfet               1.00 
       13 xinverter00.xpfet.              pfet               1.00 
       14 xinverter00.xnfet.              nfet               1.00 
       15 xinverter10.xpfet.              pfet               1.00 
       16 xinverter10.xnfet.              nfet               1.00 
       17 xinverter01.xpfet.              pfet               1.00 
       18 xinverter01.xnfet.              nfet               1.00 
       19 xinverter11.xpfet.              pfet               1.00 
       20 xinverter11.xnfet.              nfet               1.00 
       21 xoutput_00.xpfet.               pfet               1.00 
       22 xoutput_00.xnfet.               nfet               1.00 
       23 xoutput_10.xpfet.               pfet               1.00 
       24 xoutput_10.xnfet.               nfet               1.00 
1****** HSPICE -- F-2011.09-SP2 64-BIT (Feb 27 2012) linux ******               
 ******  
 $this uut was automatically generated by:

  ******  mos   model parameters tnom=  25.000 temp=  25.000 *****
 Model Name: pfet 
 BSIM-MG BULK Model(Level72)
   VERSION = 105.03  
   DEVTYPE = -1 
   BULKMOD = 1  
   COREMOD = 0 
   GEOMOD = 1 
   RDSMOD = 1 
   IGCMOD = 1 
   IGBMOD = 1 
   GIDLMOD = 0 
   IIMOD = 0 
   NQSMOD = 0 
   SHMOD = 0 
   RGATEMOD = 0 
   RGEOMOD = 1 
   CGEOMOD = 2 
   CAPMOD = 0 
   LINT = -1.5e-09 m
   LL =      0 m^(LLN+1)
   LLN =      1 
   DLC =      0 m
   DLBIN =      0 
   LLC =      0 m^(LLN+1)
   EOT = 1.1e-09 m
   TOXP = 1.4e-09 m
   EOTBOX = 1.4e-07 m
   HFIN = 2.8e-08 m
   FECH =      1 
   DELTAW =      0 m
   FECHCV =      1 
   DELTAWCV =      0 m
   NBODY =  5e+23 m^-3
   NSD =  3e+26 m^-3
   PHIG =  4.622 eV
   EPSROX =    3.9 
   EPSRSUB =   11.9 
   EASUB =   4.05 eV
   NI0SUB = 1.1e+16 m^-3
   BG0SUB =   1.12 eV
   NC0SUB = 2.86e+25 m^-3
   NGATE =      0 m^-3
   CIT = 1.3e-05 F/m^2
   CDSC = 0.01695 F/m^2
   CDSCD =  0.007 F/m^2
   CDSCDR =  0.007 
   DVT0 =   0.01 
   DVT1 =   0.69 
   PHIN =   0.05 V
   ETA0 =   0.85 
   ETA0R =   0.85 
   DSUB =    0.9 
   K1RSCE =      0 V^1/2
   LPE0 =  5e-09 m
   DVTSHIFT =      0 
   QMFACTOR =      0 
   QMTCENIV =      0 
   QMTCENCV =      0 
   AQMTCEN =      0 
   BQMTCEN = 1.2e-08 
   ETAQM =   0.54 
   QM0 = 0.001143 
   PQM =   0.66 
   QM0ACC =  0.001 
   PQMACC =   0.66 
   VSAT = 8.4e+04 
   AVSAT =      0 
   BVSAT =  1e-07 
   VSAT1 = 8.4e+04 
   AVSAT1 =      0 
   BVSAT1 =  1e-07 
   DELTAVSAT =      1 
   KSATIV =    0.8 
   MEXP =      3 
   AMEXP =      0 
   BMEXP =      1 
   PTWG =      0 
   APTWG =      0 
   BPTWG =  1e-07 
   AT = -0.00156 
   TMEXP =      0 
   PTWGT =  0.004 
   U0 =  0.026 
   ETAMOB =      2 
   UP =      0 
   LPA =      1 
   UA =    0.3 
   AUA =      0 
   BUA =  1e-07 
   EU =    1.8 
   AEU =      0 
   BEU =  1e-07 
   UD =      0 
   AUD =      0 
   BUD =  5e-08 
   UCS =      0 
   UTE =      0 
   UTL = -0.0015 
   UA1 = 0.001032 
   UD1 =      0 
   UCSTE = -0.00478 
   RDSWMIN =      0 
   RDSW =    100 
   ARDSW =      0 
   BRDSW =  1e-07 
   RSWMIN =      0 
   RSW =      0 
   ARSW =      0 
   BRSW =  1e-07 
   RDWMIN =      0 
   RDW =      0 
   ARDW =      0 
   BRDW =  1e-07 
   PRWG =      0 
   WR =      1 
   PRT =  0.001 
   PDIBL1 =    1.3 
   PDIBL2 = 0.0002 
   DROUT =   1.06 
   PVAG =      1 
   PCLM =    0.2 
   APCLM =      0 
   BPCLM =  1e-07 
   PCLMG =      0 
   VASAT =    0.6 
   PCLMCV =  0.013 
   PCLMGCV =      0 
   VASATCV =    0.2 
   RGEXT =      0 ohm
   RGFIN =  0.001 ohm
   RSHS =      0 ohm
   RSHD =      0 ohm
   HEPI =  1e-08 m
   TSILI =  1e-08 m
   RHOC =  5e-12 ohm/m^2
   RHORSD =      1 ohm/m
   RHOEXT =      1 ohm/m
   CRATIO =    0.5 
   DELTAPRSD =      0 m
   SDTERM = 0 
   LSP = 4.8e-09 m
   LDG =  3e-09 m
   EPSRSP =    3.9 
   TGATE =  1e-08 m
   TMASK =      0 m
   ASILIEND =      0 m^2
   ARSDEND =      0 m^2
   PRSDEND =      0 m
   NSDE =  3e+25 m^-3
   RGEOA =      1 
   RGEOB =      0 m^-1
   RGEOC =      0 m^-1
   RGEOD =      0 m^-1
   RGEOE =      0 m^-1
   CGEOA =      1 
   CGEOB =      0 m^-1
   CGEOC =      0 m^-1
   CGEOD =      0 m^-1
   CGEOE =      1 
   AIGBINV = 0.0111 (Fs^2/g)^0.5m^-1
   BIGBINV =   0.03 (Fs^2/g)^0.5m^-1
   CIGBINV =  0.006 V^-1
   EIGBINV =    1.1 V
   NIGBINV =    1.2 
   AIGBACC = 0.0149 
   BIGBACC = 0.000949 
   CIGBACC =  0.075 
   NIGBACC =      3 
   AIGC = 0.0136 (Fs^2/g)^0.5m^-1
   BIGC = 0.00171 (Fs^2/g)^0.5m^-1V^-1
   CIGC =  0.075 V^-1
   NIGC =      1 
   DLCIGS =      0 m
   AIGS = 0.0136 (Fs^2/g)^0.5m^-1
   BIGS = 0.00171 (Fs^2/g)^0.5m^-1V^-1
   CIGS =  0.075 V^-1
   DLCIGD =      0 m
   AIGD = 0.0136 (Fs^2/g)^0.5m^-1
   BIGD = 0.00171 (Fs^2/g)^0.5m^-1V^-1
   CIGD =  0.075 V^-1
   POXEDGE =      1 
   AGIDL = 5.729e-12 ohm^-1
   BGIDL =  3e+08 V/m
   EGIDL =    0.1 V
   AGISL = 5.729e-12 ohm^-1
   BGISL =  3e+08 V/m
   EGISL =    0.1 V
   ALPHA0 =      0 mV^-1
   ALPHA1 =      0 V^-1
   BETA0 =     30 V^-1
   ALPHAII =      0 
   BETAII0 =      0 V^-1
   BETAII1 =      0 
   BETAII2 =    0.1 V
   ESATII =  1e+07 V/m
   LII =  5e-10 V/m
   SII0 =    0.5 V^-1
   SII1 =    0.1 
   SII2 =      0 V
   SIID =      0 V
   EOTACC = 1.1e-09 m
   DELVFBACC =      0 V
   CFS = 2.56e-11 F/m
   CFD = 2.65e-11 F/m
   COVS = 2.5e-11 F/m
   COVD = 2.5e-11 F/m
   CGSO =      0 F/m
   CGDO =      0 F/m
   CGSL =      0 F/m
   CGDL =      0 F/m
   CKAPPAS =    0.6 V
   CKAPPAD =    0.6 V
   CGBO =      0 F/m
   CGBL =      0 F/m
   CKAPPAB =    0.6 V
   CSDESW =      0 F/m
   CJS = 0.0005 F/m^2
   CJD = 0.0005 F/m^2
   CJSWS =  5e-10 F/m
   CJSWD =  5e-10 F/m
   CJSWGS =      0 F/m
   CJSWGD =      0 F/m
   PBS =      1 V
   PBD =      1 V
   PBSWS =      1 V
   PBSWD =      1 V
   PBSWGS =      1 V
   PBSWGD =      1 V
   MJS, =    0.5 
   MJD =    0.5 
   MJSWS =   0.33 
   MJSWD =   0.33 
   MJSWGS =   0.33 
   MJSWGD =   0.33 
   SJS =      0 
   SJD =      0 
   SJSWS =      0 
   SJSWD =      0 
   SJSWGS =      0 
   SJSWGD =      0 
   MJS2 =  0.125 
   MJD2 =  0.125 
   MJSWS2 =   0.33 
   MJSWD2 =   0.33 
   MJSWGS2 =   0.33 
   MJSWGD2 =   0.33 
   JSS = 0.0001 A/m^2
   JSD = 0.0001 A/m^2
   JSWS =      0 A/m
   JSWD =      0 A/m
   JSWGS =      0 A/m
   JSWGD =      0 A/m
   NJS =      1 
   NJD =      1 
   IJTHSFWD =    0.1 A
   IJTHDFWD =    0.1 A
   IJTHSREV =    0.1 A
   IJTHDREV =    0.1 A
   BVS =     10 V
   BVD =     10 V
   XJBVS =      1 
   XJBVD =      1 
   JTSS =      0 A/m^2
   JTSD =      0 A/m^2
   JTSSWS =      0 A/m
   JTSSWD =      0 A/m
   JTSSWGS =      0 A/m
   JTSSWGD =      0 A/m
   JTWEFF =      0 m
   NJTS =     20 
   NJTSD =     20 
   NJTSSW =     20 
   NJTSSWD =     20 
   NJTSSWG =     20 
   NJTSSWGD =     20 
   VTSS =     10 V
   VTSD =     10 V
   VTSSWS =     10 V
   VTSSWD =     10 V
   VTSSWGS =     10 V
   VTSSWGD =     10 V
   LINTIGEN =      0 m
   NTGEN =      1 
   AIGEN =      0 m^-3V^-1
   BIGEN =      0 m^-3V^-3
   XRCRG1 =     12 
   XRCRG2 =      1 
   NSEG = 5 
   EF =      1 
   EM = 4.1e+07 V/m
   NOIA = 6.25e+39 eV^-1s^1-EFm^-3
   NOIB = 3.125e+24 eV^-1s^1-EFm^-1
   NOIC = 8.75e+07 eV^-1s^1-EFm
   NTNOI =      1 
   TNOM =  300.1 K
   TBGASUB = 0.000702 eV/K
   TBGBSUB =   1108 K
   KT1 =      0 V
   KT1L =      0 Vm
   IIT =   -0.5 
   TII =      0 
   TGIDL = -0.0003 K^-1
   IGT =    2.5 
   TCJ =      0 K^-1
   TCJSW =      0 K^-1
   TCJSWG =      0 K^-1
   TPB =      0 K^-1
   TPBSW =      0 K^-1
   TPBSWG =      0 K^-1
   XTIS =      3 
   XTID =      3 
   XTSS =   0.02 
   XTSD =   0.02 
   XTSSWS =   0.02 
   XTSSWD =   0.02 
   XTSSWGS =   0.02 
   XTSSWGD =   0.02 
   TNJTS =      0 
   TNJTSD =      0 
   TNJTSSW =      0 
   TNJTSSWD =      0 
   TNJTSSWG =      0 
   TNJTSSWGD =      0 
   RTH0 =   0.01 ohm
   CTH0 =  1e-05 F
   WTH0 =      0 m
   LNBODY =      0 
   NNBODY =      0 
   PNBODY =      0 
   LPHIG =      0 
   NPHIG =      0 
   PPHIG =      0 
   LNGATE =      0 
   NNGATE =      0 
   PNGATE =      0 
   LCIT =      0 
   NCIT =      0 
   PCIT =      0 
   LCDSC =      0 
   NCDSC =      0 
   PCDSC =      0 
   LCDSCD =      0 
   NCDSCD =      0 
   PCDSCD =      0 
   LCDSCDR =      0 
   NCDSCDR =      0 
   PCDSCDR =      0 
   LDVT0 =      0 
   NDVT0 =      0 
   PDVT0 =      0 
   LDVT1 =      0 
   NDVT1 =      0 
   PDVT1 =      0 
   LPHIN =      0 
   NPHIN =      0 
   PPHIN =      0 
   LETA0 =      0 
   NETA0 =      0 
   PETA0 =      0 
   LETA0R =      0 
   NETA0R =      0 
   PETA0R =      0 
   LDSUB =      0 
   NDSUB =      0 
   PDSUB =      0 
   LK1RSCE =      0 
   NK1RSCE =      0 
   PK1RSCE =      0 
   LLPE0 =      0 
   NLPE0 =      0 
   PLPE0 =      0 
   LQMFACTOR =      0 
   NQMFACTOR =      0 
   PQMFACTOR =      0 
   LQMTCENIV =      0 
   NQMTCENIV =      0 
   PQMTCENIV =      0 
   LQMTCENCV =      0 
   NQMTCENCV =      0 
   PQMTCENCV =      0 
   LVSAT =      0 
   NVSAT =      0 
   PVSAT =      0 
   LKSATIV =      0 
   NKSATIV =      0 
   PKSATIV =      0 
   LMEXP =      0 
   NMEXP =      0 
   PMEXP =      0 
   LPTWG =      0 
   NPTWG =      0 
   PPTWG =      0 
   LTHETASAT =      0 
   NTHETASAT =      0 
   PTHETASAT =      0 
   LU0 =      0 
   NU0 =      0 
   PU0 =      0 
   LUP =      0 
   NUP =      0 
   PUP =      0 
   LUA =      0 
   NUA =      0 
   PUA =      0 
   LEU =      0 
   NEU =      0 
   PEU =      0 
   LUD =      0 
   NUD =      0 
   PUD =      0 
   LUCS =      0 
   NUCS =      0 
   PUCS =      0 
   LPCLM =      0 
   NPCLM =      0 
   PPCLM =      0 
   LPCLMCV =      0 
   NPCLMCV =      0 
   PPCLMCV =      0 
   LRDSW =      0 
   NRDSW =      0 
   PRDSW =      0 
   LRSW =      0 
   NRSW =      0 
   PRSW =      0 
   LRDW =      0 
   NRDW =      0 
   PRDW =      0 
   LPRWG =      0 
   NPRWG =      0 
   PPRWG =      0 
   LWR =      0 
   NWR =      0 
   PWR =      0 
   LPDIBL1 =      0 
   NPDIBL1 =      0 
   PPDIBL1 =      0 
   LPDIBL2 =      0 
   NPDIBL2 =      0 
   PPDIBL2 =      0 
   LDROUT =      0 
   NDROUT =      0 
   PDROUT =      0 
   LPVAG =      0 
   NPVAG =      0 
   PPVAG =      0 
   LAIGBINV =      0 
   NAIGBINV =      0 
   PAIGBINV =      0 
   LBIGBINV =      0 
   NBIGBINV =      0 
   PBIGBINV =      0 
   LCIGBINV =      0 
   NCIGBINV =      0 
   PCIGBINV =      0 
   LEIGBINV =      0 
   NEIGBINV =      0 
   PEIGBINV =      0 
   LNIGBINV =      0 
   NNIGBINV =      0 
   PNIGBINV =      0 
   LAIGC =      0 
   NAIGC =      0 
   PAIGC =      0 
   LBIGC =      0 
   NBIGC =      0 
   PBIGC =      0 
   LCIGC =      0 
   NCIGC =      0 
   PCIGC =      0 
   LNIGC =      0 
   NNIGC =      0 
   PNIGC =      0 
   LAIGS =      0 
   NAIGS =      0 
   PAIGS =      0 
   LBIGS =      0 
   NBIGS =      0 
   PBIGS =      0 
   LCIGS =      0 
   NCIGS =      0 
   PCIGS =      0 
   LAIGD =      0 
   NAIGD =      0 
   PAIGD =      0 
   LBIGD =      0 
   NBIGD =      0 
   PBIGD =      0 
   LCIGD =      0 
   NCIGD =      0 
   PCIGD =      0 
   LPOXEDGE =      0 
   NPOXEDGE =      0 
   PPOXEDGE =      0 
   LAGIDL =      0 
   NAGIDL =      0 
   PAGIDL =      0 
   LBGIDL =      0 
   NBGIDL =      0 
   PBGIDL =      0 
   LEGIDL =      0 
   NEGIDL =      0 
   PEGIDL =      0 
   LAGISL =      0 
   NAGISL =      0 
   PAGISL =      0 
   LBGISL =      0 
   NBGISL =      0 
   PBGISL =      0 
   LEGISL =      0 
   NEGISL =      0 
   PEGISL =      0 
   LALPHA0 =      0 
   NALPHA0 =      0 
   PALPHA0 =      0 
   LALPHA1 =      0 
   NALPHA1 =      0 
   PALPHA1 =      0 
   LBETA0 =      0 
   NBETA0 =      0 
   PBETA0 =      0 
   LALPHAII =      0 
   NALPHAII =      0 
   PALPHAII =      0 
   LBETAII0 =      0 
   NBETAII0 =      0 
   PBETAII0 =      0 
   LBETAII1 =      0 
   NBETAII1 =      0 
   PBETAII1 =      0 
   LBETAII2 =      0 
   NBETAII2 =      0 
   PBETAII2 =      0 
   LESATII =      0 
   NESATII =      0 
   PESATII =      0 
   LLII =      0 
   NLII =      0 
   PLII =      0 
   LSII0 =      0 
   NSII0 =      0 
   PSII0 =      0 
   LSII1 =      0 
   NSII1 =      0 
   PSII1 =      0 
   LSII2 =      0 
   NSII2 =      0 
   PSII2 =      0 
   LSIID =      0 
   NSIID =      0 
   PSIID =      0 
   LCFS =      0 
   NCFS =      0 
   PCFS =      0 
   LCFD =      0 
   NCFD =      0 
   PCFD =      0 
   LCOVS =      0 
   NCOVS =      0 
   PCOVS =      0 
   LCOVD =      0 
   NCOVD =      0 
   PCOVD =      0 
   LCGSL =      0 
   NCGSL =      0 
   PCGSL =      0 
   LCGDL =      0 
   NCGDL =      0 
   PCGDL =      0 
   LCKAPPAS =      0 
   NCKAPPAS =      0 
   PCKAPPAS =      0 
   LCKAPPAD =      0 
   NCKAPPAD =      0 
   PCKAPPAD =      0 
   LCGBL =      0 
   NCGBL =      0 
   PCGBL =      0 
   LCKAPPAB =      0 
   NCKAPPAB =      0 
   PCKAPPAB =      0 
   LNTGEN =      0 
   NNTGEN =      0 
   PNTGEN =      0 
   LAIGEN =      0 
   NAIGEN =      0 
   PAIGEN =      0 
   LBIGEN =      0 
   NBIGEN =      0 
   PBIGEN =      0 
   LXRCRG1 =      0 
   NXRCRG1 =      0 
   PXRCRG1 =      0 
   LXRCRG2 =      0 
   NXRCRG2 =      0 
   PXRCRG2 =      0 
   LINTNOI =      0 
   NINTNOI =      0 
   PINTNOI =      0 
   LUTE =      0 
   NUTE =      0 
   PUTE =      0 
   LUTL =      0 
   NUTL =      0 
   PUTL =      0 
   LUA1 =      0 
   NUA1 =      0 
   PUA1 =      0 
   LUD1 =      0 
   NUD1 =      0 
   PUD1 =      0 
   LUCSTE =      0 
   NUCSTE =      0 
   PUCSTE =      0 
   LPTWGT =      0 
   NPTWGT =      0 
   PPTWGT =      0 
   LAT =      0 
   NAT =      0 
   PAT =      0 
   LSTTHETASAT =      0 
   NSTTHETASAT =      0 
   PSTTHETASAT =      0 
   LPRT =      0 
   NPRT =      0 
   PPRT =      0 
   LIIT =      0 
   NIIT =      0 
   PIIT =      0 
   LTII =      0 
   NTII =      0 
   PTII =      0 
   LTGIDL =      0 
   NTGIDL =      0 
   PTGIDL =      0 
   LIGT =      0 
   NIGT =      0 
   PIGT =      0 
   L = 2.4e-08 m
   D =  4e-08 m
   TFIN = 1.5e-08 m
   FPITCH =  6e-08 m
   NF = 1 
   NFIN = 1 
   NGCON = 1 
   ASEO =      0 m^2
   ADEO =      0 m^2
   PSEO =      0 m
   PDEO =      0 m
   ASEJ =      0 m^2
   ADEJ =      0 m^2
   PSEJ =      0 m
   PDEJ =      0 m
   CGSP =      0 F
   CGDP =      0 F
   CDSP =      0 F
   NRS =      0 
   NRD =      0 
   LRSD = 2.4e-08 m
   XL =      0 m
   DELVTRAND =      0 
   U0MULT =      1 
   IDS0MULT =      1 
   Lmin =  1e-08 m
   Lmax = 2.4e-08 m
   NFINmin = 0 
   NFINmax = 1 
   LVSAT1 =      0 
   NVSAT1 =      0 
   PVSAT1 =      0 
   LETAMOB =      0 
   NETAMOB =      0 
   PETAMOB =      0 
   LPCLMG =      0 
   NPCLMG =      0 
   PPCLMG =      0 
   LVASAT =      0 
   NVASAT =      0 
   PVASAT =      0 
   LAIGBACC =      0 
   NAIGBACC =      0 
   PAIGBACC =      0 
   LBIGBACC =      0 
   NBIGBACC =      0 
   PBIGBACC =      0 
   LCIGBACC =      0 
   NCIGBACC =      0 
   PCIGBACC =      0 
   LNIGBACC =      0 
   NNIGBACC =      0 
   PNIGBACC =      0 
 Model Name: nfet 
 BSIM-MG BULK Model(Level72)
   VERSION = 105.03  
   DEVTYPE = 1 
   BULKMOD = 1  
   COREMOD = 0 
   GEOMOD = 1 
   RDSMOD = 1 
   IGCMOD = 1 
   IGBMOD = 1 
   GIDLMOD = 0 
   IIMOD = 0 
   NQSMOD = 0 
   SHMOD = 0 
   RGATEMOD = 0 
   RGEOMOD = 1 
   CGEOMOD = 2 
   CAPMOD = 0 
   LINT = -1.5e-09 m
   LL =      0 m^(LLN+1)
   LLN =      1 
   DLC =      0 m
   DLBIN =      0 
   LLC =      0 m^(LLN+1)
   EOT = 1.1e-09 m
   TOXP = 1.4e-09 m
   EOTBOX = 1.4e-07 m
   HFIN = 2.8e-08 m
   FECH =      1 
   DELTAW =      0 m
   FECHCV =      1 
   DELTAWCV =      0 m
   NBODY =  5e+23 m^-3
   NSD =  3e+26 m^-3
   PHIG =  4.557 eV
   EPSROX =    3.9 
   EPSRSUB =   11.9 
   EASUB =   4.05 eV
   NI0SUB = 1.1e+16 m^-3
   BG0SUB =   1.12 eV
   NC0SUB = 2.86e+25 m^-3
   NGATE =      0 m^-3
   CIT = 1.3e-05 F/m^2
   CDSC = 0.01695 F/m^2
   CDSCD =  0.007 F/m^2
   CDSCDR =  0.007 
   DVT0 =   0.01 
   DVT1 =   0.69 
   PHIN =   0.05 V
   ETA0 = 0.6656 
   ETA0R = 0.6656 
   DSUB =    0.9 
   K1RSCE =      0 V^1/2
   LPE0 =  5e-09 m
   DVTSHIFT =      0 
   QMFACTOR =      0 
   QMTCENIV =      0 
   QMTCENCV =      0 
   AQMTCEN =      0 
   BQMTCEN = 1.2e-08 
   ETAQM =   0.54 
   QM0 = 0.001143 
   PQM =   0.66 
   QM0ACC =  0.001 
   PQMACC =   0.66 
   VSAT = 8.5e+04 
   AVSAT =      0 
   BVSAT =  1e-07 
   VSAT1 = 8.5e+04 
   AVSAT1 =      0 
   BVSAT1 =  1e-07 
   DELTAVSAT =      1 
   KSATIV =    0.8 
   MEXP =      3 
   AMEXP =      0 
   BMEXP =      1 
   PTWG =      0 
   APTWG =      0 
   BPTWG =  1e-07 
   AT = -0.00156 
   TMEXP =      0 
   PTWGT =  0.004 
   U0 =  0.038 
   ETAMOB =      2 
   UP =      0 
   LPA =      1 
   UA =    0.3 
   AUA =      0 
   BUA =  1e-07 
   EU =    1.8 
   AEU =      0 
   BEU =  1e-07 
   UD =      0 
   AUD =      0 
   BUD =  5e-08 
   UCS =      0 
   UTE =      0 
   UTL = -0.0015 
   UA1 = 0.001032 
   UD1 =      0 
   UCSTE = -0.00478 
   RDSWMIN =      0 
   RDSW =    100 
   ARDSW =      0 
   BRDSW =  1e-07 
   RSWMIN =      0 
   RSW =      0 
   ARSW =      0 
   BRSW =  1e-07 
   RDWMIN =      0 
   RDW =      0 
   ARDW =      0 
   BRDW =  1e-07 
   PRWG =      0 
   WR =      1 
   PRT =  0.001 
   PDIBL1 =    1.3 
   PDIBL2 = 0.0002 
   DROUT =   1.06 
   PVAG =      1 
   PCLM =    0.2 
   APCLM =      0 
   BPCLM =  1e-07 
   PCLMG =      0 
   VASAT =    0.6 
   PCLMCV =  0.013 
   PCLMGCV =      0 
   VASATCV =    0.2 
   RGEXT =      0 ohm
   RGFIN =  0.001 ohm
   RSHS =      0 ohm
   RSHD =      0 ohm
   HEPI =  1e-08 m
   TSILI =  1e-08 m
   RHOC =  4e-12 ohm/m^2
   RHORSD =      1 ohm/m
   RHOEXT =      1 ohm/m
   CRATIO =    0.5 
   DELTAPRSD =      0 m
   SDTERM = 0 
   LSP = 4.8e-09 m
   LDG =  3e-09 m
   EPSRSP =    3.9 
   TGATE =  1e-08 m
   TMASK =      0 m
   ASILIEND =      0 m^2
   ARSDEND =      0 m^2
   PRSDEND =      0 m
   NSDE =  3e+25 m^-3
   RGEOA =      1 
   RGEOB =      0 m^-1
   RGEOC =      0 m^-1
   RGEOD =      0 m^-1
   RGEOE =      0 m^-1
   CGEOA =      1 
   CGEOB =      0 m^-1
   CGEOC =      0 m^-1
   CGEOD =      0 m^-1
   CGEOE =      1 
   AIGBINV = 0.0111 (Fs^2/g)^0.5m^-1
   BIGBINV =   0.03 (Fs^2/g)^0.5m^-1
   CIGBINV =  0.006 V^-1
   EIGBINV =    1.1 V
   NIGBINV =    1.2 
   AIGBACC = 0.0149 
   BIGBACC = 0.000949 
   CIGBACC =  0.075 
   NIGBACC =      3 
   AIGC = 0.0136 (Fs^2/g)^0.5m^-1
   BIGC = 0.00171 (Fs^2/g)^0.5m^-1V^-1
   CIGC =  0.075 V^-1
   NIGC =      1 
   DLCIGS =      0 m
   AIGS = 0.0136 (Fs^2/g)^0.5m^-1
   BIGS = 0.00171 (Fs^2/g)^0.5m^-1V^-1
   CIGS =  0.075 V^-1
   DLCIGD =      0 m
   AIGD = 0.0136 (Fs^2/g)^0.5m^-1
   BIGD = 0.00171 (Fs^2/g)^0.5m^-1V^-1
   CIGD =  0.075 V^-1
   POXEDGE =      1 
   AGIDL = 5.729e-12 ohm^-1
   BGIDL =  3e+08 V/m
   EGIDL =    0.1 V
   AGISL = 5.729e-12 ohm^-1
   BGISL =  3e+08 V/m
   EGISL =    0.1 V
   ALPHA0 =      0 mV^-1
   ALPHA1 =      0 V^-1
   BETA0 =     30 V^-1
   ALPHAII =      0 
   BETAII0 =      0 V^-1
   BETAII1 =      0 
   BETAII2 =    0.1 V
   ESATII =  1e+07 V/m
   LII =  5e-10 V/m
   SII0 =    0.5 V^-1
   SII1 =    0.1 
   SII2 =      0 V
   SIID =      0 V
   EOTACC = 1.1e-09 m
   DELVFBACC =      0 V
   CFS = 2.56e-11 F/m
   CFD = 2.65e-11 F/m
   COVS = 2.5e-11 F/m
   COVD = 2.5e-11 F/m
   CGSO =      0 F/m
   CGDO =      0 F/m
   CGSL =      0 F/m
   CGDL =      0 F/m
   CKAPPAS =    0.6 V
   CKAPPAD =    0.6 V
   CGBO =      0 F/m
   CGBL =      0 F/m
   CKAPPAB =    0.6 V
   CSDESW =      0 F/m
   CJS = 0.0005 F/m^2
   CJD = 0.0005 F/m^2
   CJSWS =  5e-10 F/m
   CJSWD =  5e-10 F/m
   CJSWGS =      0 F/m
   CJSWGD =      0 F/m
   PBS =      1 V
   PBD =      1 V
   PBSWS =      1 V
   PBSWD =      1 V
   PBSWGS =      1 V
   PBSWGD =      1 V
   MJS, =    0.5 
   MJD =    0.5 
   MJSWS =   0.33 
   MJSWD =   0.33 
   MJSWGS =   0.33 
   MJSWGD =   0.33 
   SJS =      0 
   SJD =      0 
   SJSWS =      0 
   SJSWD =      0 
   SJSWGS =      0 
   SJSWGD =      0 
   MJS2 =  0.125 
   MJD2 =  0.125 
   MJSWS2 =   0.33 
   MJSWD2 =   0.33 
   MJSWGS2 =   0.33 
   MJSWGD2 =   0.33 
   JSS = 0.0001 A/m^2
   JSD = 0.0001 A/m^2
   JSWS =      0 A/m
   JSWD =      0 A/m
   JSWGS =      0 A/m
   JSWGD =      0 A/m
   NJS =      1 
   NJD =      1 
   IJTHSFWD =    0.1 A
   IJTHDFWD =    0.1 A
   IJTHSREV =    0.1 A
   IJTHDREV =    0.1 A
   BVS =     10 V
   BVD =     10 V
   XJBVS =      1 
   XJBVD =      1 
   JTSS =      0 A/m^2
   JTSD =      0 A/m^2
   JTSSWS =      0 A/m
   JTSSWD =      0 A/m
   JTSSWGS =      0 A/m
   JTSSWGD =      0 A/m
   JTWEFF =      0 m
   NJTS =     20 
   NJTSD =     20 
   NJTSSW =     20 
   NJTSSWD =     20 
   NJTSSWG =     20 
   NJTSSWGD =     20 
   VTSS =     10 V
   VTSD =     10 V
   VTSSWS =     10 V
   VTSSWD =     10 V
   VTSSWGS =     10 V
   VTSSWGD =     10 V
   LINTIGEN =      0 m
   NTGEN =      1 
   AIGEN =      0 m^-3V^-1
   BIGEN =      0 m^-3V^-3
   XRCRG1 =     12 
   XRCRG2 =      1 
   NSEG = 5 
   EF =      1 
   EM = 4.1e+07 V/m
   NOIA = 6.25e+39 eV^-1s^1-EFm^-3
   NOIB = 3.125e+24 eV^-1s^1-EFm^-1
   NOIC = 8.75e+07 eV^-1s^1-EFm
   NTNOI =      1 
   TNOM =  300.1 K
   TBGASUB = 0.000702 eV/K
   TBGBSUB =   1108 K
   KT1 =      0 V
   KT1L =      0 Vm
   IIT =   -0.5 
   TII =      0 
   TGIDL = -0.0003 K^-1
   IGT =    2.5 
   TCJ =      0 K^-1
   TCJSW =      0 K^-1
   TCJSWG =      0 K^-1
   TPB =      0 K^-1
   TPBSW =      0 K^-1
   TPBSWG =      0 K^-1
   XTIS =      3 
   XTID =      3 
   XTSS =   0.02 
   XTSD =   0.02 
   XTSSWS =   0.02 
   XTSSWD =   0.02 
   XTSSWGS =   0.02 
   XTSSWGD =   0.02 
   TNJTS =      0 
   TNJTSD =      0 
   TNJTSSW =      0 
   TNJTSSWD =      0 
   TNJTSSWG =      0 
   TNJTSSWGD =      0 
   RTH0 =   0.01 ohm
   CTH0 =  1e-05 F
   WTH0 =      0 m
   LNBODY =      0 
   NNBODY =      0 
   PNBODY =      0 
   LPHIG =      0 
   NPHIG =      0 
   PPHIG =      0 
   LNGATE =      0 
   NNGATE =      0 
   PNGATE =      0 
   LCIT =      0 
   NCIT =      0 
   PCIT =      0 
   LCDSC =      0 
   NCDSC =      0 
   PCDSC =      0 
   LCDSCD =      0 
   NCDSCD =      0 
   PCDSCD =      0 
   LCDSCDR =      0 
   NCDSCDR =      0 
   PCDSCDR =      0 
   LDVT0 =      0 
   NDVT0 =      0 
   PDVT0 =      0 
   LDVT1 =      0 
   NDVT1 =      0 
   PDVT1 =      0 
   LPHIN =      0 
   NPHIN =      0 
   PPHIN =      0 
   LETA0 =      0 
   NETA0 =      0 
   PETA0 =      0 
   LETA0R =      0 
   NETA0R =      0 
   PETA0R =      0 
   LDSUB =      0 
   NDSUB =      0 
   PDSUB =      0 
   LK1RSCE =      0 
   NK1RSCE =      0 
   PK1RSCE =      0 
   LLPE0 =      0 
   NLPE0 =      0 
   PLPE0 =      0 
   LQMFACTOR =      0 
   NQMFACTOR =      0 
   PQMFACTOR =      0 
   LQMTCENIV =      0 
   NQMTCENIV =      0 
   PQMTCENIV =      0 
   LQMTCENCV =      0 
   NQMTCENCV =      0 
   PQMTCENCV =      0 
   LVSAT =      0 
   NVSAT =      0 
   PVSAT =      0 
   LKSATIV =      0 
   NKSATIV =      0 
   PKSATIV =      0 
   LMEXP =      0 
   NMEXP =      0 
   PMEXP =      0 
   LPTWG =      0 
   NPTWG =      0 
   PPTWG =      0 
   LTHETASAT =      0 
   NTHETASAT =      0 
   PTHETASAT =      0 
   LU0 =      0 
   NU0 =      0 
   PU0 =      0 
   LUP =      0 
   NUP =      0 
   PUP =      0 
   LUA =      0 
   NUA =      0 
   PUA =      0 
   LEU =      0 
   NEU =      0 
   PEU =      0 
   LUD =      0 
   NUD =      0 
   PUD =      0 
   LUCS =      0 
   NUCS =      0 
   PUCS =      0 
   LPCLM =      0 
   NPCLM =      0 
   PPCLM =      0 
   LPCLMCV =      0 
   NPCLMCV =      0 
   PPCLMCV =      0 
   LRDSW =      0 
   NRDSW =      0 
   PRDSW =      0 
   LRSW =      0 
   NRSW =      0 
   PRSW =      0 
   LRDW =      0 
   NRDW =      0 
   PRDW =      0 
   LPRWG =      0 
   NPRWG =      0 
   PPRWG =      0 
   LWR =      0 
   NWR =      0 
   PWR =      0 
   LPDIBL1 =      0 
   NPDIBL1 =      0 
   PPDIBL1 =      0 
   LPDIBL2 =      0 
   NPDIBL2 =      0 
   PPDIBL2 =      0 
   LDROUT =      0 
   NDROUT =      0 
   PDROUT =      0 
   LPVAG =      0 
   NPVAG =      0 
   PPVAG =      0 
   LAIGBINV =      0 
   NAIGBINV =      0 
   PAIGBINV =      0 
   LBIGBINV =      0 
   NBIGBINV =      0 
   PBIGBINV =      0 
   LCIGBINV =      0 
   NCIGBINV =      0 
   PCIGBINV =      0 
   LEIGBINV =      0 
   NEIGBINV =      0 
   PEIGBINV =      0 
   LNIGBINV =      0 
   NNIGBINV =      0 
   PNIGBINV =      0 
   LAIGC =      0 
   NAIGC =      0 
   PAIGC =      0 
   LBIGC =      0 
   NBIGC =      0 
   PBIGC =      0 
   LCIGC =      0 
   NCIGC =      0 
   PCIGC =      0 
   LNIGC =      0 
   NNIGC =      0 
   PNIGC =      0 
   LAIGS =      0 
   NAIGS =      0 
   PAIGS =      0 
   LBIGS =      0 
   NBIGS =      0 
   PBIGS =      0 
   LCIGS =      0 
   NCIGS =      0 
   PCIGS =      0 
   LAIGD =      0 
   NAIGD =      0 
   PAIGD =      0 
   LBIGD =      0 
   NBIGD =      0 
   PBIGD =      0 
   LCIGD =      0 
   NCIGD =      0 
   PCIGD =      0 
   LPOXEDGE =      0 
   NPOXEDGE =      0 
   PPOXEDGE =      0 
   LAGIDL =      0 
   NAGIDL =      0 
   PAGIDL =      0 
   LBGIDL =      0 
   NBGIDL =      0 
   PBGIDL =      0 
   LEGIDL =      0 
   NEGIDL =      0 
   PEGIDL =      0 
   LAGISL =      0 
   NAGISL =      0 
   PAGISL =      0 
   LBGISL =      0 
   NBGISL =      0 
   PBGISL =      0 
   LEGISL =      0 
   NEGISL =      0 
   PEGISL =      0 
   LALPHA0 =      0 
   NALPHA0 =      0 
   PALPHA0 =      0 
   LALPHA1 =      0 
   NALPHA1 =      0 
   PALPHA1 =      0 
   LBETA0 =      0 
   NBETA0 =      0 
   PBETA0 =      0 
   LALPHAII =      0 
   NALPHAII =      0 
   PALPHAII =      0 
   LBETAII0 =      0 
   NBETAII0 =      0 
   PBETAII0 =      0 
   LBETAII1 =      0 
   NBETAII1 =      0 
   PBETAII1 =      0 
   LBETAII2 =      0 
   NBETAII2 =      0 
   PBETAII2 =      0 
   LESATII =      0 
   NESATII =      0 
   PESATII =      0 
   LLII =      0 
   NLII =      0 
   PLII =      0 
   LSII0 =      0 
   NSII0 =      0 
   PSII0 =      0 
   LSII1 =      0 
   NSII1 =      0 
   PSII1 =      0 
   LSII2 =      0 
   NSII2 =      0 
   PSII2 =      0 
   LSIID =      0 
   NSIID =      0 
   PSIID =      0 
   LCFS =      0 
   NCFS =      0 
   PCFS =      0 
   LCFD =      0 
   NCFD =      0 
   PCFD =      0 
   LCOVS =      0 
   NCOVS =      0 
   PCOVS =      0 
   LCOVD =      0 
   NCOVD =      0 
   PCOVD =      0 
   LCGSL =      0 
   NCGSL =      0 
   PCGSL =      0 
   LCGDL =      0 
   NCGDL =      0 
   PCGDL =      0 
   LCKAPPAS =      0 
   NCKAPPAS =      0 
   PCKAPPAS =      0 
   LCKAPPAD =      0 
   NCKAPPAD =      0 
   PCKAPPAD =      0 
   LCGBL =      0 
   NCGBL =      0 
   PCGBL =      0 
   LCKAPPAB =      0 
   NCKAPPAB =      0 
   PCKAPPAB =      0 
   LNTGEN =      0 
   NNTGEN =      0 
   PNTGEN =      0 
   LAIGEN =      0 
   NAIGEN =      0 
   PAIGEN =      0 
   LBIGEN =      0 
   NBIGEN =      0 
   PBIGEN =      0 
   LXRCRG1 =      0 
   NXRCRG1 =      0 
   PXRCRG1 =      0 
   LXRCRG2 =      0 
   NXRCRG2 =      0 
   PXRCRG2 =      0 
   LINTNOI =      0 
   NINTNOI =      0 
   PINTNOI =      0 
   LUTE =      0 
   NUTE =      0 
   PUTE =      0 
   LUTL =      0 
   NUTL =      0 
   PUTL =      0 
   LUA1 =      0 
   NUA1 =      0 
   PUA1 =      0 
   LUD1 =      0 
   NUD1 =      0 
   PUD1 =      0 
   LUCSTE =      0 
   NUCSTE =      0 
   PUCSTE =      0 
   LPTWGT =      0 
   NPTWGT =      0 
   PPTWGT =      0 
   LAT =      0 
   NAT =      0 
   PAT =      0 
   LSTTHETASAT =      0 
   NSTTHETASAT =      0 
   PSTTHETASAT =      0 
   LPRT =      0 
   NPRT =      0 
   PPRT =      0 
   LIIT =      0 
   NIIT =      0 
   PIIT =      0 
   LTII =      0 
   NTII =      0 
   PTII =      0 
   LTGIDL =      0 
   NTGIDL =      0 
   PTGIDL =      0 
   LIGT =      0 
   NIGT =      0 
   PIGT =      0 
   L = 2.4e-08 m
   D =  4e-08 m
   TFIN = 1.5e-08 m
   FPITCH =  6e-08 m
   NF = 1 
   NFIN = 1 
   NGCON = 1 
   ASEO =      0 m^2
   ADEO =      0 m^2
   PSEO =      0 m
   PDEO =      0 m
   ASEJ =      0 m^2
   ADEJ =      0 m^2
   PSEJ =      0 m
   PDEJ =      0 m
   CGSP =      0 F
   CGDP =      0 F
   CDSP =      0 F
   NRS =      0 
   NRD =      0 
   LRSD = 2.4e-08 m
   XL =      0 m
   DELVTRAND =      0 
   U0MULT =      1 
   IDS0MULT =      1 
   Lmin =  1e-08 m
   Lmax = 2.4e-08 m
   NFINmin = 0 
   NFINmax = 1 
   LVSAT1 =      0 
   NVSAT1 =      0 
   PVSAT1 =      0 
   LETAMOB =      0 
   NETAMOB =      0 
   PETAMOB =      0 
   LPCLMG =      0 
   NPCLMG =      0 
   PPCLMG =      0 
   LVASAT =      0 
   NVASAT =      0 
   PVASAT =      0 
   LAIGBACC =      0 
   NAIGBACC =      0 
   PAIGBACC =      0 
   LBIGBACC =      0 
   NBIGBACC =      0 
   PBIGBACC =      0 
   LCIGBACC =      0 
   NCIGBACC =      0 
   PCIGBACC =      0 
   LNIGBACC =      0 
   NNIGBACC =      0 
   PNIGBACC =      0 
  **info** (ptm20lstp.sp:15) DC voltage reset to initial transient source value              in source        0:vin_0               new dc=  0.9000D+00
  
 **warning**  No DC path to ground from node        0:outin_30         defined in subckt 0               ; Connected by HSPICE with gdcpath


      
 **info** set option symb=1 internally to help for convergence.
 *****************************************************************
 ******  option summary
 ******
 runlvl  = 3         bypass  = 2         
  Opening plot unit= 15
 file=ptm20lstp.pa0                                                            

1****** HSPICE -- F-2011.09-SP2 64-BIT (Feb 27 2012) linux ******               
 ******  
 $this uut was automatically generated by:

  ******  operating point information tnom=  25.000 temp=  25.000 *****
 ***** operating point status is voltage   simulation time is     0.     
     node    =voltage       node    =voltage       node    =voltage

 + 0:inb_0   = 900.0000m  0:inb_1   = 900.0000m  0:outb_00 = 899.9995m
 + 0:outb_10 = 899.9995m  0:outin_00= 428.3553n  0:outin_01= 428.3553n
 + 0:outin_10= 899.9995m  0:outin_11= 899.9995m  0:outin_20= 428.3371n
 + 0:outin_21= 428.3371n  0:outin_30=   4.0533m  0:outin_31=   4.0533m
 + 0:vdd     = 900.0000m

 ******  
 $this uut was automatically generated by:

  ******  transient analysis tnom=  25.000 temp=  25.000 *****
 trf_delay_001=   5.3639p  targ=  38.4932p   trig=  33.1293p
 tfr_delay_001=   6.8754p  targ=   1.0891n   trig=   1.0822n
 trf_delay_002=   6.4932p  targ=   2.0406n   trig=   2.0341n
 tfr_delay_002=   6.7332p  targ=   3.0910n   trig=   3.0843n
 trf_delay_101=   3.1965p  targ=   1.0923n   trig=   1.0891n
 tfr_delay_101=   2.4303p  targ=  40.9235p   trig=  38.4932p
 trf_delay_102=   1.6982p  targ=   3.0927n   trig=   3.0910n
 tfr_delay_102=   2.9254p  targ=   2.0435n   trig=   2.0406n
 trf_delay_011=   5.3639p  targ=  38.4932p   trig=  33.1293p
 tfr_delay_011=   7.2614p  targ=   2.0912n   trig=   2.0839n
 trf_delay_111=   3.0685p  targ=   2.0942n   trig=   2.0912n
 tfr_delay_111=   2.4303p  targ=  40.9235p   trig=  38.4932p
x

        time    voltage      voltage    
                 outin_00     outin_10  
    0.            0.         899.9995m  
   10.00000p     -8.3969m    899.8719m  
   20.00000p     64.5963m    858.1604m  
   30.00000p    329.0445m    703.9080m  
   40.00000p    700.5119m    376.7160m  
   50.00000p    881.9355m      5.4632m  
   60.00000p    900.1567m    -47.8295u  
   70.00000p    899.9995m      3.3309u  
   80.00000p    900.0055m      2.1210u  
   90.00000p    899.9843m     -8.3774u  
  100.00000p    899.9908m     -4.4456u  
  110.00000p    899.9973m   -513.8263n  
  120.00000p    900.0038m      3.4180u  
  130.00000p    900.0103m      7.3498u  
  140.00000p    900.0121m      8.4288u  
  150.00000p    900.0098m      6.9421u  
  160.00000p    900.0075m      5.4554u  
  170.00000p    900.0052m      3.9688u  
  180.00000p    900.0029m      2.4821u  
  190.00000p    900.0005m    995.4769n  
  200.00000p    899.9982m      0.       
  210.00000p    899.9959m     -1.9778u  
  220.00000p    899.9936m     -3.4645u  
  230.00000p    899.9913m     -4.9511u  
  240.00000p    899.9890m     -6.4378u  
  250.00000p    899.9866m     -7.9245u  
  260.00000p    899.9873m     -7.4838u  
  270.00000p    899.9886m     -6.6270u  
  280.00000p    899.9899m     -5.7702u  
  290.00000p    899.9912m     -4.9134u  
  300.00000p    899.9925m     -4.0567u  
  310.00000p    899.9938m     -3.1999u  
  320.00000p    899.9951m     -2.3431u  
  330.00000p    899.9964m     -1.4863u  
  340.00000p    899.9977m   -629.4988n  
  350.00000p    899.9990m      0.       
  360.00000p    900.0003m      1.0841u  
  370.00000p    900.0017m      1.9409u  
  380.00000p    900.0030m      2.7977u  
  390.00000p    900.0043m      3.6544u  
  400.00000p    900.0056m      4.5112u  
  410.00000p    900.0069m      5.3680u  
  420.00000p    900.0082m      6.2248u  
  430.00000p    900.0095m      7.0816u  
  440.00000p    900.0108m      7.9384u  
  450.00000p    900.0121m      8.7952u  
  460.00000p    900.0113m      8.2507u  
  470.00000p    900.0100m      7.4037u  
  480.00000p    900.0087m      6.5567u  
  490.00000p    900.0075m      5.7097u  
  500.00000p    900.0062m      4.8627u  
  510.00000p    900.0049m      4.0158u  
  520.00000p    900.0037m      3.1688u  
  530.00000p    900.0024m      2.3218u  
  540.00000p    900.0011m      1.4748u  
  550.00000p    899.9999m    627.7664n  
  560.00000p    899.9986m      0.       
  570.00000p    899.9973m     -1.0662u  
  580.00000p    899.9961m     -1.9132u  
  590.00000p    899.9948m     -2.7602u  
  600.00000p    899.9935m     -3.6072u  
  610.00000p    899.9923m     -4.4542u  
  620.00000p    899.9910m     -5.3012u  
  630.00000p    899.9897m     -6.1482u  
  640.00000p    899.9884m     -6.9952u  
  650.00000p    899.9872m     -7.8422u  
  660.00000p    899.9880m     -7.3041u  
  670.00000p    899.9892m     -6.4669u  
  680.00000p    899.9904m     -5.6297u  
  690.00000p    899.9917m     -4.7925u  
  700.00000p    899.9929m     -3.9553u  
  710.00000p    899.9941m     -3.1181u  
  720.00000p    899.9954m     -2.2809u  
  730.00000p    899.9966m     -1.4437u  
  740.00000p    899.9978m   -606.4693n  
  750.00000p    899.9991m      0.       
  760.00000p    900.0003m      1.0679u  
  770.00000p    900.0015m      1.9051u  
  780.00000p    900.0028m      2.7423u  
  790.00000p    900.0040m      3.5795u  
  800.00000p    900.0052m      4.4167u  
  810.00000p    900.0065m      5.2539u  
  820.00000p    900.0077m      6.0911u  
  830.00000p    900.0089m      6.9283u  
  840.00000p    900.0102m      7.7655u  
  850.00000p    900.0114m      8.6027u  
  860.00000p    900.0106m      8.0649u  
  870.00000p    900.0094m      7.2301u  
  880.00000p    900.0082m      6.3953u  
  890.00000p    900.0070m      5.5606u  
  900.00000p    900.0058m      4.7258u  
  910.00000p    900.0046m      3.8910u  
  920.00000p    900.0034m      3.0562u  
  930.00000p    900.0022m      2.2215u  
  940.00000p    900.0009m      1.3867u  
  950.00000p    899.9997m    551.9260n  
  960.00000p    899.9985m      0.       
  970.00000p    899.9973m     -1.1176u  
  980.00000p    899.9961m     -1.9524u  
  990.00000p    899.9949m     -2.7872u  
    1.00000n    899.9937m     -3.6219u  
    1.01000n    899.9925m     -4.4567u  
    1.02000n    899.9913m     -5.2915u  
    1.03000n    899.9901m     -6.1262u  
    1.04000n    899.9889m     -6.9610u  
    1.05000n    899.9876m     -7.7958u  
    1.06000n    910.4683m    267.1372u  
    1.07000n    810.6425m     -2.6671m  
    1.08000n    542.0483m     -9.2153m  
    1.09000n    106.0102m    500.6385m  
    1.10000n     13.7560m    890.6510m  
    1.11000n     58.1818u    899.9861m  
    1.12000n     -9.7358u    900.0008m  
    1.13000n     12.2328u    900.0002m  
    1.14000n   -732.9179n    899.9992m  
    1.15000n    -12.3729u    899.9983m  
    1.16000n     -8.9585u    899.9986m  
    1.17000n     -5.5441u    899.9989m  
    1.18000n     -2.1297u    899.9992m  
    1.19000n      1.2847u    899.9995m  
    1.20000n      4.6991u    899.9998m  
    1.21000n      8.1135u    900.0001m  
    1.22000n     11.5279u    900.0004m  
    1.23000n     11.5110u    900.0004m  
    1.24000n     10.0887u    900.0003m  
    1.25000n      8.6665u    900.0002m  
    1.26000n      7.2442u    900.0001m  
    1.27000n      5.8219u    899.9999m  
    1.28000n      4.3996u    899.9998m  
    1.29000n      2.9774u    899.9997m  
    1.30000n      1.5551u    899.9996m  
    1.31000n      0.         899.9994m  
    1.32000n     -1.2894u    899.9993m  
    1.33000n     -2.7117u    899.9992m  
    1.34000n     -4.1340u    899.9990m  
    1.35000n     -5.5563u    899.9989m  
    1.36000n     -6.9785u    899.9988m  
    1.37000n     -8.4008u    899.9987m  
    1.38000n     -9.8231u    899.9985m  
    1.39000n    -11.2453u    899.9984m  
    1.40000n    -10.1050u    899.9985m  
    1.41000n     -8.9536u    899.9986m  
    1.42000n     -7.8022u    899.9987m  
    1.43000n     -6.6508u    899.9988m  
    1.44000n     -5.4994u    899.9989m  
    1.45000n     -4.3480u    899.9990m  
    1.46000n     -3.1966u    899.9991m  
    1.47000n     -2.0452u    899.9992m  
    1.48000n   -893.8351n    899.9993m  
    1.49000n      0.         899.9994m  
    1.50000n      1.4090u    899.9995m  
    1.51000n      2.5604u    899.9996m  
    1.52000n      3.7118u    899.9998m  
    1.53000n      4.8631u    899.9999m  
    1.54000n      6.0145u    900.0000m  
    1.55000n      7.1659u    900.0001m  
    1.56000n      8.3173u    900.0002m  
    1.57000n      9.4687u    900.0003m  
    1.58000n     10.6201u    900.0004m  
    1.59000n     11.7715u    900.0005m  
    1.60000n     10.6629u    900.0004m  
    1.61000n      9.5444u    900.0003m  
    1.62000n      8.4260u    900.0002m  
    1.63000n      7.3076u    900.0001m  
    1.64000n      6.1892u    900.0000m  
    1.65000n      5.0708u    899.9999m  
    1.66000n      3.9524u    899.9998m  
    1.67000n      2.8339u    899.9997m  
    1.68000n      1.7155u    899.9996m  
    1.69000n    597.1018n    899.9995m  
    1.70000n   -521.3162n    899.9994m  
    1.71000n     -1.6397u    899.9993m  
    1.72000n     -2.7582u    899.9992m  
    1.73000n     -3.8766u    899.9991m  
    1.74000n     -4.9950u    899.9990m  
    1.75000n     -6.1134u    899.9989m  
    1.76000n     -7.2318u    899.9988m  
    1.77000n     -8.3502u    899.9987m  
    1.78000n     -9.4687u    899.9986m  
    1.79000n    -10.5871u    899.9985m  
    1.80000n     -9.5609u    899.9986m  
    1.81000n     -8.5255u    899.9987m  
    1.82000n     -7.4901u    899.9987m  
    1.83000n     -6.4547u    899.9988m  
    1.84000n     -5.4192u    899.9989m  
    1.85000n     -4.3838u    899.9990m  
    1.86000n     -3.3484u    899.9991m  
    1.87000n     -2.3130u    899.9992m  
    1.88000n     -1.2776u    899.9993m  
    1.89000n      0.         899.9994m  
    1.90000n    793.2833n    899.9995m  
    1.91000n      1.8287u    899.9996m  
    1.92000n      2.8641u    899.9997m  
    1.93000n      3.8995u    899.9998m  
    1.94000n      4.9350u    899.9999m  
    1.95000n      5.9704u    900.0000m  
    1.96000n      7.0058u    900.0000m  
    1.97000n      8.0412u    900.0001m  
    1.98000n      9.0766u    900.0002m  
    1.99000n     10.1121u    900.0003m  
    2.00000n     11.1475u    900.0004m  
    2.01000n     53.5906m    901.2132m  
    2.02000n    107.1700m    902.4259m  
    2.03000n    265.2027m    916.2916m  
    2.04000n    743.5914m    515.1707m  
    2.05000n    880.2447m      7.4581m  
    2.06000n    899.9390m     28.9548u  
    2.07000n    900.0182m     16.3324u  
    2.08000n    899.9899m     -8.0246u  
    2.09000n    900.0024m      3.1357u  
    2.10000n    899.9986m     -2.3501u  
    2.11000n    899.9995m    544.7160n  
    2.12000n    899.9995m    548.0167n  
    2.13000n    899.9995m    543.8672n  
    2.14000n    899.9995m    542.7924n  
    2.15000n    899.9995m    545.3085n  
    2.16000n    899.9995m    547.8246n  
    2.17000n    899.9995m    549.5356n  
    2.18000n    899.9995m    548.1615n  
    2.19000n    899.9995m    546.7874n  
    2.20000n    899.9995m    545.4133n  
    2.21000n    899.9995m    544.0392n  
    2.22000n    899.9995m    542.6651n  
    2.23000n    899.9995m    541.2910n  
    2.24000n    899.9995m    541.4739n  
    2.25000n    899.9995m    542.1865n  
    2.26000n    899.9995m    542.8990n  
    2.27000n    899.9995m    543.6116n  
    2.28000n    899.9995m    544.3241n  
    2.29000n    899.9995m    545.0366n  
    2.30000n    899.9995m    545.7492n  
    2.31000n    899.9995m    546.4617n  
    2.32000n    899.9995m    547.1743n  
    2.33000n    899.9995m    547.8868n  
    2.34000n    899.9995m    548.5994n  
    2.35000n    899.9995m    549.3119n  
    2.36000n    899.9995m    550.0244n  
    2.37000n    899.9995m    549.6152n  
    2.38000n    899.9995m    549.1530n  
    2.39000n    899.9995m    548.6907n  
    2.40000n    899.9995m    548.2285n  
    2.41000n    899.9995m    547.7663n  
    2.42000n    899.9995m    547.3041n  
    2.43000n    899.9995m    546.8419n  
    2.44000n    899.9995m    546.3796n  
    2.45000n    899.9995m    545.9174n  
    2.46000n    899.9995m    545.4552n  
    2.47000n    899.9995m    544.9930n  
    2.48000n    899.9995m    544.5307n  
    2.49000n    899.9995m    544.0685n  
    2.50000n    899.9995m    543.6063n  
    2.51000n    899.9995m    543.1441n  
    2.52000n    899.9995m    542.6818n  
    2.53000n    899.9995m    542.2196n  
    2.54000n    899.9995m    541.7574n  
    2.55000n    899.9995m    541.2952n  
    2.56000n    899.9995m    540.8330n  
    2.57000n    899.9995m    541.2583n  
    2.58000n    899.9995m    541.7256n  
    2.59000n    899.9995m    542.1929n  
    2.60000n    899.9995m    542.6602n  
    2.61000n    899.9995m    543.1275n  
    2.62000n    899.9995m    543.5948n  
    2.63000n    899.9995m    544.0621n  
    2.64000n    899.9995m    544.5294n  
    2.65000n    899.9995m    544.9967n  
    2.66000n    899.9995m    545.4640n  
    2.67000n    899.9995m    545.9313n  
    2.68000n    899.9995m    546.3986n  
    2.69000n    899.9995m    546.8659n  
    2.70000n    899.9995m    547.3332n  
    2.71000n    899.9995m    547.8005n  
    2.72000n    899.9995m    548.2678n  
    2.73000n    899.9995m    548.7351n  
    2.74000n    899.9995m    549.2024n  
    2.75000n    899.9995m    549.6697n  
    2.76000n    899.9995m    550.1370n  
    2.77000n    899.9995m    549.7070n  
    2.78000n    899.9995m    549.2346n  
    2.79000n    899.9995m    548.7623n  
    2.80000n    899.9995m    548.2899n  
    2.81000n    899.9995m    547.8175n  
    2.82000n    899.9995m    547.3451n  
    2.83000n    899.9995m    546.8728n  
    2.84000n    899.9995m    546.4004n  
    2.85000n    899.9995m    545.9280n  
    2.86000n    899.9995m    545.4557n  
    2.87000n    899.9995m    544.9833n  
    2.88000n    899.9995m    544.5109n  
    2.89000n    899.9995m    544.0385n  
    2.90000n    899.9995m    543.5662n  
    2.91000n    899.9995m    543.0938n  
    2.92000n    899.9995m    542.6214n  
    2.93000n    899.9995m    542.1491n  
    2.94000n    899.9995m    541.6767n  
    2.95000n    899.9995m    541.2043n  
    2.96000n    899.9995m    540.7320n  
    2.97000n    899.9995m    541.7356n  
    2.98000n    899.9995m    542.8089n  
    2.99000n    899.9995m    543.8822n  
    3.00000n    899.9995m    544.9555n  
    3.01000n    899.9995m    546.0288n  
    3.02000n    899.9995m    547.1021n  
    3.03000n    899.9995m    548.1754n  
    3.04000n    899.9995m    549.2487n  
    3.05000n    899.9995m    550.3220n  
    3.06000n    910.9022m    252.7597u  
    3.07000n    887.4211m     -1.5200m  
    3.08000n    659.0380m     79.8791m  
    3.09000n    199.5507m    384.1724m  
    3.10000n     17.7016m    895.5555m  
    3.11000n     53.2344u    899.9655m  
    3.12000n    -20.7527u    899.9897m  
    3.13000n     21.3141u    900.0104m  
    3.14000n      8.3846u    900.0035m  
    3.15000n     -4.5449u    899.9966m  
    3.16000n    -17.4743u    899.9897m  
    3.17000n    -13.1447u    899.9921m  
    3.18000n     -8.7184u    899.9945m  
    3.19000n     -4.2922u    899.9969m  
    3.20000n      0.         899.9993m  
    3.21000n      4.5604u    900.0017m  
    3.22000n      8.9867u    900.0042m  
    3.23000n     13.4130u    900.0066m  
    3.24000n     16.9352u    900.0085m  
    3.25000n     15.0385u    900.0074m  
    3.26000n     13.1419u    900.0064m  
    3.27000n     11.2452u    900.0054m  
    3.28000n      9.3486u    900.0043m  
    3.29000n      7.4519u    900.0033m  
    3.30000n      5.5552u    900.0022m  
    3.31000n      3.6586u    900.0012m  
    3.32000n      1.7619u    900.0001m  
    3.33000n      0.         899.9991m  
    3.34000n     -2.0314u    899.9981m  
    3.35000n     -3.9281u    899.9970m  
    3.36000n     -5.8247u    899.9960m  
    3.37000n     -7.7214u    899.9949m  
    3.38000n     -9.6180u    899.9939m  
    3.39000n    -11.5147u    899.9929m  
    3.40000n    -13.4114u    899.9918m  
    3.41000n    -15.3080u    899.9908m  
    3.42000n    -14.6746u    899.9911m  
    3.43000n    -13.0703u    899.9920m  
    3.44000n    -11.4659u    899.9929m  
    3.45000n     -9.8616u    899.9938m  
    3.46000n     -8.2572u    899.9947m  
    3.47000n     -6.6529u    899.9955m  
    3.48000n     -5.0485u    899.9964m  
    3.49000n     -3.4442u    899.9973m  
    3.50000n     -1.8398u    899.9982m  
    3.51000n      0.         899.9991m  
    3.52000n      1.3689u    900.0000m  
    3.53000n      2.9732u    900.0009m  
    3.54000n      4.5776u    900.0017m  
    3.55000n      6.1819u    900.0026m  
    3.56000n      7.7863u    900.0035m  
    3.57000n      9.3906u    900.0044m  
    3.58000n     10.9950u    900.0053m  
    3.59000n     12.5993u    900.0062m  
    3.60000n     14.2036u    900.0071m  
    3.61000n     15.8080u    900.0079m  
    3.62000n     15.1249u    900.0076m  
    3.63000n     13.5639u    900.0067m  
    3.64000n     12.0029u    900.0058m  
    3.65000n     10.4419u    900.0050m  
    3.66000n      8.8810u    900.0041m  
    3.67000n      7.3200u    900.0032m  
    3.68000n      5.7590u    900.0024m  
    3.69000n      4.1981u    900.0015m  
    3.70000n      2.6371u    900.0006m  
    3.71000n      1.0761u    899.9998m  
    3.72000n      0.         899.9989m  
    3.73000n     -2.0458u    899.9980m  
    3.74000n     -3.6068u    899.9972m  
    3.75000n     -5.1678u    899.9963m  
    3.76000n     -6.7288u    899.9954m  
    3.77000n     -8.2897u    899.9946m  
    3.78000n     -9.8507u    899.9937m  
    3.79000n    -11.4117u    899.9929m  
    3.80000n    -12.9727u    899.9920m  
    3.81000n    -14.5336u    899.9911m  
    3.82000n    -13.7952u    899.9915m  
    3.83000n    -12.1744u    899.9924m  
    3.84000n    -10.5536u    899.9933m  
    3.85000n     -8.9328u    899.9942m  
    3.86000n     -7.3120u    899.9951m  
    3.87000n     -5.6912u    899.9960m  
    3.88000n     -4.0704u    899.9970m  
    3.89000n     -2.4496u    899.9979m  
    3.90000n   -828.7542n    899.9988m  
    3.91000n    792.0541n    899.9997m  
    3.92000n      2.4129u    900.0006m  
    3.93000n      4.0337u    900.0015m  
    3.94000n      5.6545u    900.0024m  
    3.95000n      7.2753u    900.0033m  
    3.96000n      8.8961u    900.0042m  
    3.97000n     10.5169u    900.0051m  
    3.98000n     12.1377u    900.0060m  
    3.99000n     13.7585u    900.0069m  
    4.00000n     15.3793u    900.0078m  
y
x

        time    voltage      voltage    
                 outin_10     outin_20  
    0.          899.9995m      0.       
   10.00000p    899.8719m     51.5383u  
   20.00000p    858.1604m     -1.5383m  
   30.00000p    703.9080m     -7.0765m  
   40.00000p    376.7160m    344.1570m  
   50.00000p      5.4632m    898.7214m  
   60.00000p    -47.8295u    900.0058m  
   70.00000p      3.3309u    900.0001m  
   80.00000p      2.1210u    899.9988m  
   90.00000p     -8.3774u    900.0004m  
  100.00000p     -4.4456u    900.0001m  
  110.00000p   -513.8263n    899.9998m  
  120.00000p      3.4180u    899.9995m  
  130.00000p      7.3498u    899.9992m  
  140.00000p      8.4288u    899.9991m  
  150.00000p      6.9421u    899.9992m  
  160.00000p      5.4554u    899.9993m  
  170.00000p      3.9688u    899.9993m  
  180.00000p      2.4821u    899.9994m  
  190.00000p    995.4769n    899.9995m  
  200.00000p      0.         899.9996m  
  210.00000p     -1.9778u    899.9996m  
  220.00000p     -3.4645u    899.9997m  
  230.00000p     -4.9511u    899.9998m  
  240.00000p     -6.4378u    899.9998m  
  250.00000p     -7.9245u    899.9999m  
  260.00000p     -7.4838u    899.9999m  
  270.00000p     -6.6270u    899.9999m  
  280.00000p     -5.7702u    899.9998m  
  290.00000p     -4.9134u    899.9998m  
  300.00000p     -4.0567u    899.9998m  
  310.00000p     -3.1999u    899.9997m  
  320.00000p     -2.3431u    899.9997m  
  330.00000p     -1.4863u    899.9997m  
  340.00000p   -629.4988n    899.9996m  
  350.00000p      0.         899.9996m  
  360.00000p      1.0841u    899.9996m  
  370.00000p      1.9409u    899.9996m  
  380.00000p      2.7977u    899.9995m  
  390.00000p      3.6544u    899.9995m  
  400.00000p      4.5112u    899.9995m  
  410.00000p      5.3680u    899.9994m  
  420.00000p      6.2248u    899.9994m  
  430.00000p      7.0816u    899.9994m  
  440.00000p      7.9384u    899.9993m  
  450.00000p      8.7952u    899.9993m  
  460.00000p      8.2507u    899.9993m  
  470.00000p      7.4037u    899.9993m  
  480.00000p      6.5567u    899.9994m  
  490.00000p      5.7097u    899.9994m  
  500.00000p      4.8627u    899.9994m  
  510.00000p      4.0158u    899.9994m  
  520.00000p      3.1688u    899.9995m  
  530.00000p      2.3218u    899.9995m  
  540.00000p      1.4748u    899.9995m  
  550.00000p    627.7664n    899.9995m  
  560.00000p      0.         899.9996m  
  570.00000p     -1.0662u    899.9996m  
  580.00000p     -1.9132u    899.9996m  
  590.00000p     -2.7602u    899.9996m  
  600.00000p     -3.6072u    899.9997m  
  610.00000p     -4.4542u    899.9997m  
  620.00000p     -5.3012u    899.9997m  
  630.00000p     -6.1482u    899.9997m  
  640.00000p     -6.9952u    899.9998m  
  650.00000p     -7.8422u    899.9998m  
  660.00000p     -7.3041u    899.9998m  
  670.00000p     -6.4669u    899.9998m  
  680.00000p     -5.6297u    899.9997m  
  690.00000p     -4.7925u    899.9997m  
  700.00000p     -3.9553u    899.9997m  
  710.00000p     -3.1181u    899.9997m  
  720.00000p     -2.2809u    899.9997m  
  730.00000p     -1.4437u    899.9996m  
  740.00000p   -606.4693n    899.9996m  
  750.00000p      0.         899.9996m  
  760.00000p      1.0679u    899.9996m  
  770.00000p      1.9051u    899.9996m  
  780.00000p      2.7423u    899.9996m  
  790.00000p      3.5795u    899.9995m  
  800.00000p      4.4167u    899.9995m  
  810.00000p      5.2539u    899.9995m  
  820.00000p      6.0911u    899.9995m  
  830.00000p      6.9283u    899.9995m  
  840.00000p      7.7655u    899.9994m  
  850.00000p      8.6027u    899.9994m  
  860.00000p      8.0649u    899.9994m  
  870.00000p      7.2301u    899.9994m  
  880.00000p      6.3953u    899.9995m  
  890.00000p      5.5606u    899.9995m  
  900.00000p      4.7258u    899.9995m  
  910.00000p      3.8910u    899.9995m  
  920.00000p      3.0562u    899.9995m  
  930.00000p      2.2215u    899.9995m  
  940.00000p      1.3867u    899.9995m  
  950.00000p    551.9260n    899.9995m  
  960.00000p      0.         899.9996m  
  970.00000p     -1.1176u    899.9996m  
  980.00000p     -1.9524u    899.9996m  
  990.00000p     -2.7872u    899.9996m  
    1.00000n     -3.6219u    899.9996m  
    1.01000n     -4.4567u    899.9996m  
    1.02000n     -5.2915u    899.9996m  
    1.03000n     -6.1262u    899.9996m  
    1.04000n     -6.9610u    899.9996m  
    1.05000n     -7.7958u    899.9997m  
    1.06000n    267.1372u    899.9507m  
    1.07000n     -2.6671m    899.7189m  
    1.08000n     -9.2153m    899.5190m  
    1.09000n    500.6385m    759.4487m  
    1.10000n    890.6510m      2.5517m  
    1.11000n    899.9861m    -12.6972u  
    1.12000n    900.0008m      3.6986u  
    1.13000n    900.0002m     -7.6615u  
    1.14000n    899.9992m      2.5754u  
    1.15000n    899.9983m     11.7385u  
    1.16000n    899.9986m      8.7078u  
    1.17000n    899.9989m      5.6771u  
    1.18000n    899.9992m      2.6464u  
    1.19000n    899.9995m      0.       
    1.20000n    899.9998m     -3.4150u  
    1.21000n    900.0001m     -6.4457u  
    1.22000n    900.0004m     -9.4764u  
    1.23000n    900.0004m     -9.4260u  
    1.24000n    900.0003m     -8.1136u  
    1.25000n    900.0002m     -6.8012u  
    1.26000n    900.0001m     -5.4888u  
    1.27000n    899.9999m     -4.1764u  
    1.28000n    899.9998m     -2.8640u  
    1.29000n    899.9997m     -1.5516u  
    1.30000n    899.9996m      0.       
    1.31000n    899.9994m      1.0732u  
    1.32000n    899.9993m      2.3855u  
    1.33000n    899.9992m      3.6979u  
    1.34000n    899.9990m      5.0103u  
    1.35000n    899.9989m      6.3227u  
    1.36000n    899.9988m      7.6351u  
    1.37000n    899.9987m      8.9475u  
    1.38000n    899.9985m     10.2599u  
    1.39000n    899.9984m     11.5723u  
    1.40000n    899.9985m     10.4970u  
    1.41000n    899.9986m      9.4114u  
    1.42000n    899.9987m      8.3259u  
    1.43000n    899.9988m      7.2403u  
    1.44000n    899.9989m      6.1547u  
    1.45000n    899.9990m      5.0691u  
    1.46000n    899.9991m      3.9836u  
    1.47000n    899.9992m      2.8980u  
    1.48000n    899.9993m      1.8124u  
    1.49000n    899.9994m    726.8519n  
    1.50000n    899.9995m      0.       
    1.51000n    899.9996m     -1.4443u  
    1.52000n    899.9998m     -2.5299u  
    1.53000n    899.9999m     -3.6154u  
    1.54000n    900.0000m     -4.7010u  
    1.55000n    900.0001m     -5.7866u  
    1.56000n    900.0002m     -6.8722u  
    1.57000n    900.0003m     -7.9577u  
    1.58000n    900.0004m     -9.0433u  
    1.59000n    900.0005m    -10.1289u  
    1.60000n    900.0004m     -9.0626u  
    1.61000n    900.0003m     -7.9871u  
    1.62000n    900.0002m     -6.9116u  
    1.63000n    900.0001m     -5.8361u  
    1.64000n    900.0000m     -4.7605u  
    1.65000n    899.9999m     -3.6850u  
    1.66000n    899.9998m     -2.6095u  
    1.67000n    899.9997m     -1.5340u  
    1.68000n    899.9996m      0.       
    1.69000n    899.9995m    617.0748n  
    1.70000n    899.9994m      1.6926u  
    1.71000n    899.9993m      2.7681u  
    1.72000n    899.9992m      3.8436u  
    1.73000n    899.9991m      4.9192u  
    1.74000n    899.9990m      5.9947u  
    1.75000n    899.9989m      7.0702u  
    1.76000n    899.9988m      8.1457u  
    1.77000n    899.9987m      9.2213u  
    1.78000n    899.9986m     10.2968u  
    1.79000n    899.9985m     11.3723u  
    1.80000n    899.9986m     10.3660u  
    1.81000n    899.9987m      9.3507u  
    1.82000n    899.9987m      8.3355u  
    1.83000n    899.9988m      7.3202u  
    1.84000n    899.9989m      6.3049u  
    1.85000n    899.9990m      5.2896u  
    1.86000n    899.9991m      4.2744u  
    1.87000n    899.9992m      3.2591u  
    1.88000n    899.9993m      2.2438u  
    1.89000n    899.9994m      1.2285u  
    1.90000n    899.9995m      0.       
    1.91000n    899.9996m   -802.0161n  
    1.92000n    899.9997m     -1.8173u  
    1.93000n    899.9998m     -2.8326u  
    1.94000n    899.9999m     -3.8478u  
    1.95000n    900.0000m     -4.8631u  
    1.96000n    900.0000m     -5.8784u  
    1.97000n    900.0001m     -6.8937u  
    1.98000n    900.0002m     -7.9089u  
    1.99000n    900.0003m     -8.9242u  
    2.00000n    900.0004m     -9.9395u  
    2.01000n    901.2132m     16.4309u  
    2.02000n    902.4259m     42.8012u  
    2.03000n    916.2916m      1.7426m  
    2.04000n    515.1707m     -7.3352m  
    2.05000n      7.4581m    895.3626m  
    2.06000n     28.9548u    899.9830m  
    2.07000n     16.3324u    900.0006m  
    2.08000n     -8.0246u    899.9956m  
    2.09000n      3.1357u    900.0002m  
    2.10000n     -2.3501u    899.9894m  
    2.11000n    544.7160n    899.9996m  
    2.12000n    548.0167n    899.9996m  
    2.13000n    543.8672n    899.9995m  
    2.14000n    542.7924n    899.9995m  
    2.15000n    545.3085n    899.9996m  
    2.16000n    547.8246n    899.9996m  
    2.17000n    549.5356n    899.9997m  
    2.18000n    548.1615n    899.9996m  
    2.19000n    546.7874n    899.9996m  
    2.20000n    545.4133n    899.9996m  
    2.21000n    544.0392n    899.9995m  
    2.22000n    542.6651n    899.9995m  
    2.23000n    541.2910n    899.9995m  
    2.24000n    541.4739n    899.9995m  
    2.25000n    542.1865n    899.9995m  
    2.26000n    542.8990n    899.9995m  
    2.27000n    543.6116n    899.9995m  
    2.28000n    544.3241n    899.9995m  
    2.29000n    545.0366n    899.9996m  
    2.30000n    545.7492n    899.9996m  
    2.31000n    546.4617n    899.9996m  
    2.32000n    547.1743n    899.9996m  
    2.33000n    547.8868n    899.9996m  
    2.34000n    548.5994n    899.9996m  
    2.35000n    549.3119n    899.9997m  
    2.36000n    550.0244n    899.9997m  
    2.37000n    549.6152n    899.9997m  
    2.38000n    549.1530n    899.9996m  
    2.39000n    548.6907n    899.9996m  
    2.40000n    548.2285n    899.9996m  
    2.41000n    547.7663n    899.9996m  
    2.42000n    547.3041n    899.9996m  
    2.43000n    546.8419n    899.9996m  
    2.44000n    546.3796n    899.9996m  
    2.45000n    545.9174n    899.9996m  
    2.46000n    545.4552n    899.9996m  
    2.47000n    544.9930n    899.9996m  
    2.48000n    544.5307n    899.9996m  
    2.49000n    544.0685n    899.9995m  
    2.50000n    543.6063n    899.9995m  
    2.51000n    543.1441n    899.9995m  
    2.52000n    542.6818n    899.9995m  
    2.53000n    542.2196n    899.9995m  
    2.54000n    541.7574n    899.9995m  
    2.55000n    541.2952n    899.9995m  
    2.56000n    540.8330n    899.9995m  
    2.57000n    541.2583n    899.9995m  
    2.58000n    541.7256n    899.9995m  
    2.59000n    542.1929n    899.9995m  
    2.60000n    542.6602n    899.9995m  
    2.61000n    543.1275n    899.9995m  
    2.62000n    543.5948n    899.9995m  
    2.63000n    544.0621n    899.9995m  
    2.64000n    544.5294n    899.9996m  
    2.65000n    544.9967n    899.9996m  
    2.66000n    545.4640n    899.9996m  
    2.67000n    545.9313n    899.9996m  
    2.68000n    546.3986n    899.9996m  
    2.69000n    546.8659n    899.9996m  
    2.70000n    547.3332n    899.9996m  
    2.71000n    547.8005n    899.9996m  
    2.72000n    548.2678n    899.9996m  
    2.73000n    548.7351n    899.9996m  
    2.74000n    549.2024n    899.9996m  
    2.75000n    549.6697n    899.9997m  
    2.76000n    550.1370n    899.9997m  
    2.77000n    549.7070n    899.9997m  
    2.78000n    549.2346n    899.9996m  
    2.79000n    548.7623n    899.9996m  
    2.80000n    548.2899n    899.9996m  
    2.81000n    547.8175n    899.9996m  
    2.82000n    547.3451n    899.9996m  
    2.83000n    546.8728n    899.9996m  
    2.84000n    546.4004n    899.9996m  
    2.85000n    545.9280n    899.9996m  
    2.86000n    545.4557n    899.9996m  
    2.87000n    544.9833n    899.9996m  
    2.88000n    544.5109n    899.9996m  
    2.89000n    544.0385n    899.9995m  
    2.90000n    543.5662n    899.9995m  
    2.91000n    543.0938n    899.9995m  
    2.92000n    542.6214n    899.9995m  
    2.93000n    542.1491n    899.9995m  
    2.94000n    541.6767n    899.9995m  
    2.95000n    541.2043n    899.9995m  
    2.96000n    540.7320n    899.9995m  
    2.97000n    541.7356n    899.9995m  
    2.98000n    542.8089n    899.9995m  
    2.99000n    543.8822n    899.9995m  
    3.00000n    544.9555n    899.9996m  
    3.01000n    546.0288n    899.9996m  
    3.02000n    547.1021n    899.9996m  
    3.03000n    548.1754n    899.9996m  
    3.04000n    549.2487n    899.9996m  
    3.05000n    550.3220n    899.9997m  
    3.06000n    252.7597u    899.9132m  
    3.07000n     -1.5200m    899.8896m  
    3.08000n     79.8791m    906.7760m  
    3.09000n    384.1724m    697.2463m  
    3.10000n    895.5555m    663.9235u  
    3.11000n    899.9655m      8.3908u  
    3.12000n    899.9897m      4.4431u  
    3.13000n    900.0104m     -2.0648u  
    3.14000n    900.0035m   -726.1564n  
    3.15000n    899.9966m    612.4598n  
    3.16000n    899.9897m      1.9511u  
    3.17000n    899.9921m      1.6157u  
    3.18000n    899.9945m      1.2709u  
    3.19000n    899.9969m    926.1111n  
    3.20000n    899.9993m    581.3308n  
    3.21000n    900.0017m      0.       
    3.22000n    900.0042m      0.       
    3.23000n    900.0066m      0.       
    3.24000n    900.0085m   -730.4289n  
    3.25000n    900.0074m   -604.0925n  
    3.26000n    900.0064m      0.       
    3.27000n    900.0054m      0.       
    3.28000n    900.0043m      0.       
    3.29000n    900.0033m      0.       
    3.30000n    900.0022m      0.       
    3.31000n    900.0012m      0.       
    3.32000n    900.0001m      0.       
    3.33000n    899.9991m      0.       
    3.34000n    899.9981m    532.9354n  
    3.35000n    899.9970m    659.2718n  
    3.36000n    899.9960m    785.6082n  
    3.37000n    899.9949m    911.9447n  
    3.38000n    899.9939m      1.0383u  
    3.39000n    899.9929m      1.1646u  
    3.40000n    899.9918m      1.2910u  
    3.41000n    899.9908m      1.4173u  
    3.42000n    899.9911m      1.3826u  
    3.43000n    899.9920m      1.2861u  
    3.44000n    899.9929m      1.1897u  
    3.45000n    899.9938m      1.0932u  
    3.46000n    899.9947m    996.7222n  
    3.47000n    899.9955m    900.2502n  
    3.48000n    899.9964m    803.7783n  
    3.49000n    899.9973m    707.3063n  
    3.50000n    899.9982m    610.8344n  
    3.51000n    899.9991m    514.3624n  
    3.52000n    900.0000m      0.       
    3.53000n    900.0009m      0.       
    3.54000n    900.0017m      0.       
    3.55000n    900.0026m      0.       
    3.56000n    900.0035m      0.       
    3.57000n    900.0044m      0.       
    3.58000n    900.0053m      0.       
    3.59000n    900.0062m      0.       
    3.60000n    900.0071m      0.       
    3.61000n    900.0079m      0.       
    3.62000n    900.0076m      0.       
    3.63000n    900.0067m      0.       
    3.64000n    900.0058m      0.       
    3.65000n    900.0050m      0.       
    3.66000n    900.0041m      0.       
    3.67000n    900.0032m      0.       
    3.68000n    900.0024m      0.       
    3.69000n    900.0015m      0.       
    3.70000n    900.0006m      0.       
    3.71000n    899.9998m      0.       
    3.72000n    899.9989m      0.       
    3.73000n    899.9980m    503.7818n  
    3.74000n    899.9972m    587.4567n  
    3.75000n    899.9963m    671.1317n  
    3.76000n    899.9954m    754.8066n  
    3.77000n    899.9946m    838.4815n  
    3.78000n    899.9937m    922.1565n  
    3.79000n    899.9929m      1.0058u  
    3.80000n    899.9920m      1.0895u  
    3.81000n    899.9911m      1.1732u  
    3.82000n    899.9915m      1.1420u  
    3.83000n    899.9924m      1.0668u  
    3.84000n    899.9933m    991.6064n  
    3.85000n    899.9942m    916.3932n  
    3.86000n    899.9951m    841.1801n  
    3.87000n    899.9960m    765.9669n  
    3.88000n    899.9970m    690.7537n  
    3.89000n    899.9979m    615.5406n  
    3.90000n    899.9988m    540.3274n  
    3.91000n    899.9997m      0.       
    3.92000n    900.0006m      0.       
    3.93000n    900.0015m      0.       
    3.94000n    900.0024m      0.       
    3.95000n    900.0033m      0.       
    3.96000n    900.0042m      0.       
    3.97000n    900.0051m      0.       
    3.98000n    900.0060m      0.       
    3.99000n    900.0069m      0.       
    4.00000n    900.0078m      0.       
y
x

        time    voltage      voltage    
                 outin_01     outin_11  
    0.            0.         899.9995m  
   10.00000p     -8.3969m    899.8719m  
   20.00000p     64.5963m    858.1604m  
   30.00000p    329.0445m    703.9080m  
   40.00000p    700.5119m    376.7160m  
   50.00000p    881.9355m      5.4632m  
   60.00000p    900.1567m    -47.8295u  
   70.00000p    899.9995m      3.3309u  
   80.00000p    900.0055m      2.1210u  
   90.00000p    899.9843m     -8.3774u  
  100.00000p    899.9908m     -4.4456u  
  110.00000p    899.9973m   -513.8263n  
  120.00000p    900.0038m      3.4180u  
  130.00000p    900.0103m      7.3498u  
  140.00000p    900.0121m      8.4288u  
  150.00000p    900.0098m      6.9421u  
  160.00000p    900.0075m      5.4554u  
  170.00000p    900.0052m      3.9688u  
  180.00000p    900.0029m      2.4821u  
  190.00000p    900.0005m    995.4769n  
  200.00000p    899.9982m      0.       
  210.00000p    899.9959m     -1.9778u  
  220.00000p    899.9936m     -3.4645u  
  230.00000p    899.9913m     -4.9511u  
  240.00000p    899.9890m     -6.4378u  
  250.00000p    899.9866m     -7.9245u  
  260.00000p    899.9873m     -7.4838u  
  270.00000p    899.9886m     -6.6270u  
  280.00000p    899.9899m     -5.7702u  
  290.00000p    899.9912m     -4.9134u  
  300.00000p    899.9925m     -4.0567u  
  310.00000p    899.9938m     -3.1999u  
  320.00000p    899.9951m     -2.3431u  
  330.00000p    899.9964m     -1.4863u  
  340.00000p    899.9977m   -629.4988n  
  350.00000p    899.9990m      0.       
  360.00000p    900.0003m      1.0841u  
  370.00000p    900.0017m      1.9409u  
  380.00000p    900.0030m      2.7977u  
  390.00000p    900.0043m      3.6544u  
  400.00000p    900.0056m      4.5112u  
  410.00000p    900.0069m      5.3680u  
  420.00000p    900.0082m      6.2248u  
  430.00000p    900.0095m      7.0816u  
  440.00000p    900.0108m      7.9384u  
  450.00000p    900.0121m      8.7952u  
  460.00000p    900.0113m      8.2507u  
  470.00000p    900.0100m      7.4037u  
  480.00000p    900.0087m      6.5567u  
  490.00000p    900.0075m      5.7097u  
  500.00000p    900.0062m      4.8627u  
  510.00000p    900.0049m      4.0158u  
  520.00000p    900.0037m      3.1688u  
  530.00000p    900.0024m      2.3218u  
  540.00000p    900.0011m      1.4748u  
  550.00000p    899.9999m    627.7664n  
  560.00000p    899.9986m      0.       
  570.00000p    899.9973m     -1.0662u  
  580.00000p    899.9961m     -1.9132u  
  590.00000p    899.9948m     -2.7602u  
  600.00000p    899.9935m     -3.6072u  
  610.00000p    899.9923m     -4.4542u  
  620.00000p    899.9910m     -5.3012u  
  630.00000p    899.9897m     -6.1482u  
  640.00000p    899.9884m     -6.9952u  
  650.00000p    899.9872m     -7.8422u  
  660.00000p    899.9880m     -7.3041u  
  670.00000p    899.9892m     -6.4669u  
  680.00000p    899.9904m     -5.6297u  
  690.00000p    899.9917m     -4.7925u  
  700.00000p    899.9929m     -3.9553u  
  710.00000p    899.9941m     -3.1181u  
  720.00000p    899.9954m     -2.2809u  
  730.00000p    899.9966m     -1.4437u  
  740.00000p    899.9978m   -606.4693n  
  750.00000p    899.9991m      0.       
  760.00000p    900.0003m      1.0679u  
  770.00000p    900.0015m      1.9051u  
  780.00000p    900.0028m      2.7423u  
  790.00000p    900.0040m      3.5795u  
  800.00000p    900.0052m      4.4167u  
  810.00000p    900.0065m      5.2539u  
  820.00000p    900.0077m      6.0911u  
  830.00000p    900.0089m      6.9283u  
  840.00000p    900.0102m      7.7655u  
  850.00000p    900.0114m      8.6027u  
  860.00000p    900.0106m      8.0649u  
  870.00000p    900.0094m      7.2301u  
  880.00000p    900.0082m      6.3953u  
  890.00000p    900.0070m      5.5606u  
  900.00000p    900.0058m      4.7258u  
  910.00000p    900.0046m      3.8910u  
  920.00000p    900.0034m      3.0562u  
  930.00000p    900.0022m      2.2215u  
  940.00000p    900.0009m      1.3867u  
  950.00000p    899.9997m    551.9260n  
  960.00000p    899.9985m      0.       
  970.00000p    899.9973m     -1.1176u  
  980.00000p    899.9961m     -1.9524u  
  990.00000p    899.9949m     -2.7872u  
    1.00000n    899.9937m     -3.6219u  
    1.01000n    899.9925m     -4.4567u  
    1.02000n    899.9913m     -5.2915u  
    1.03000n    899.9901m     -6.1262u  
    1.04000n    899.9889m     -6.9610u  
    1.05000n    899.9876m     -7.7958u  
    1.06000n    899.9992m    517.9613n  
    1.07000n    900.0014m      1.3819u  
    1.08000n    899.9990m      0.       
    1.09000n    899.9997m    655.4273n  
    1.10000n    899.9995m      0.       
    1.11000n    899.9995m      0.       
    1.12000n    899.9995m      0.       
    1.13000n    899.9995m      0.       
    1.14000n    899.9995m      0.       
    1.15000n    899.9995m      0.       
    1.16000n    899.9995m      0.       
    1.17000n    899.9995m      0.       
    1.18000n    899.9995m      0.       
    1.19000n    899.9995m      0.       
    1.20000n    899.9995m      0.       
    1.21000n    899.9995m      0.       
    1.22000n    899.9995m      0.       
    1.23000n    899.9995m      0.       
    1.24000n    899.9995m      0.       
    1.25000n    899.9995m      0.       
    1.26000n    899.9995m      0.       
    1.27000n    899.9995m      0.       
    1.28000n    899.9995m      0.       
    1.29000n    899.9995m      0.       
    1.30000n    899.9995m      0.       
    1.31000n    899.9995m      0.       
    1.32000n    899.9995m      0.       
    1.33000n    899.9995m      0.       
    1.34000n    899.9995m      0.       
    1.35000n    899.9995m      0.       
    1.36000n    899.9995m      0.       
    1.37000n    899.9995m      0.       
    1.38000n    899.9995m      0.       
    1.39000n    899.9995m      0.       
    1.40000n    899.9995m      0.       
    1.41000n    899.9995m      0.       
    1.42000n    899.9995m      0.       
    1.43000n    899.9995m      0.       
    1.44000n    899.9995m      0.       
    1.45000n    899.9995m      0.       
    1.46000n    899.9995m      0.       
    1.47000n    899.9995m      0.       
    1.48000n    899.9995m      0.       
    1.49000n    899.9995m      0.       
    1.50000n    899.9995m      0.       
    1.51000n    899.9995m      0.       
    1.52000n    899.9995m      0.       
    1.53000n    899.9995m      0.       
    1.54000n    899.9995m      0.       
    1.55000n    899.9995m      0.       
    1.56000n    899.9995m      0.       
    1.57000n    899.9995m      0.       
    1.58000n    899.9995m      0.       
    1.59000n    899.9995m      0.       
    1.60000n    899.9995m      0.       
    1.61000n    899.9995m      0.       
    1.62000n    899.9995m      0.       
    1.63000n    899.9995m      0.       
    1.64000n    899.9995m      0.       
    1.65000n    899.9995m      0.       
    1.66000n    899.9995m      0.       
    1.67000n    899.9995m      0.       
    1.68000n    899.9995m      0.       
    1.69000n    899.9995m      0.       
    1.70000n    899.9995m      0.       
    1.71000n    899.9995m      0.       
    1.72000n    899.9995m      0.       
    1.73000n    899.9995m      0.       
    1.74000n    899.9995m      0.       
    1.75000n    899.9995m      0.       
    1.76000n    899.9995m      0.       
    1.77000n    899.9995m      0.       
    1.78000n    899.9995m      0.       
    1.79000n    899.9995m      0.       
    1.80000n    899.9995m      0.       
    1.81000n    899.9995m      0.       
    1.82000n    899.9995m      0.       
    1.83000n    899.9995m      0.       
    1.84000n    899.9995m      0.       
    1.85000n    899.9995m      0.       
    1.86000n    899.9995m      0.       
    1.87000n    899.9995m      0.       
    1.88000n    899.9995m      0.       
    1.89000n    899.9995m      0.       
    1.90000n    899.9995m      0.       
    1.91000n    899.9995m      0.       
    1.92000n    899.9995m      0.       
    1.93000n    899.9995m      0.       
    1.94000n    899.9995m      0.       
    1.95000n    899.9995m      0.       
    1.96000n    899.9995m      0.       
    1.97000n    899.9995m      0.       
    1.98000n    899.9995m      0.       
    1.99000n    899.9995m      0.       
    2.00000n    899.9995m      0.       
    2.01000n    899.9995m      0.       
    2.02000n    899.9995m      0.       
    2.03000n    899.9995m      0.       
    2.04000n    899.9995m      0.       
    2.05000n    899.9995m      0.       
    2.06000n    910.8842m     35.0514u  
    2.07000n    879.0645m     -2.3045m  
    2.08000n    648.5049m     -5.2336u  
    2.09000n    169.6893m    351.3083m  
    2.10000n     17.8211m    878.2380m  
    2.11000n     61.9178u    899.9292m  
    2.12000n     21.1000u    900.0560m  
    2.13000n     -8.5109u    899.9762m  
    2.14000n    -18.7274u    899.9496m  
    2.15000n     -1.8572u    899.9935m  
    2.16000n     15.0130u    900.0373m  
    2.17000n     26.6090u    900.0675m  
    2.18000n     17.9933u    900.0451m  
    2.19000n      9.3775u    900.0227m  
    2.20000n    761.7836n    900.0003m  
    2.21000n     -7.8540u    899.9780m  
    2.22000n    -16.4697u    899.9556m  
    2.23000n    -25.0854u    899.9332m  
    2.24000n    -24.0481u    899.9359m  
    2.25000n    -19.7271u    899.9471m  
    2.26000n    -15.4061u    899.9583m  
    2.27000n    -11.0852u    899.9695m  
    2.28000n     -6.7642u    899.9808m  
    2.29000n     -2.4432u    899.9920m  
    2.30000n      1.8778u    900.0032m  
    2.31000n      6.1988u    900.0144m  
    2.32000n     10.5198u    900.0257m  
    2.33000n     14.8408u    900.0369m  
    2.34000n     19.1617u    900.0481m  
    2.35000n     23.4827u    900.0593m  
    2.36000n     27.8037u    900.0705m  
    2.37000n     25.3698u    900.0642m  
    2.38000n     22.6170u    900.0571m  
    2.39000n     19.8642u    900.0499m  
    2.40000n     17.1113u    900.0428m  
    2.41000n     14.3585u    900.0356m  
    2.42000n     11.6057u    900.0285m  
    2.43000n      8.8528u    900.0213m  
    2.44000n      6.1000u    900.0142m  
    2.45000n      3.3472u    900.0070m  
    2.46000n    594.3251n    899.9999m  
    2.47000n     -2.1585u    899.9928m  
    2.48000n     -4.9113u    899.9856m  
    2.49000n     -7.6642u    899.9785m  
    2.50000n    -10.4170u    899.9713m  
    2.51000n    -13.1698u    899.9642m  
    2.52000n    -15.9227u    899.9570m  
    2.53000n    -18.6755u    899.9499m  
    2.54000n    -21.4284u    899.9427m  
    2.55000n    -24.1812u    899.9356m  
    2.56000n    -26.9340u    899.9284m  
    2.57000n    -24.4374u    899.9349m  
    2.58000n    -21.6930u    899.9420m  
    2.59000n    -18.9485u    899.9492m  
    2.60000n    -16.2040u    899.9563m  
    2.61000n    -13.4595u    899.9634m  
    2.62000n    -10.7151u    899.9705m  
    2.63000n     -7.9706u    899.9776m  
    2.64000n     -5.2261u    899.9848m  
    2.65000n     -2.4816u    899.9919m  
    2.66000n      0.         899.9990m  
    2.67000n      3.0073u    900.0061m  
    2.68000n      5.7518u    900.0133m  
    2.69000n      8.4962u    900.0204m  
    2.70000n     11.2407u    900.0275m  
    2.71000n     13.9852u    900.0346m  
    2.72000n     16.7297u    900.0418m  
    2.73000n     19.4741u    900.0489m  
    2.74000n     22.2186u    900.0560m  
    2.75000n     24.9631u    900.0631m  
    2.76000n     27.7076u    900.0703m  
    2.77000n     25.2185u    900.0638m  
    2.78000n     22.4824u    900.0567m  
    2.79000n     19.7462u    900.0496m  
    2.80000n     17.0101u    900.0425m  
    2.81000n     14.2740u    900.0354m  
    2.82000n     11.5378u    900.0283m  
    2.83000n      8.8017u    900.0212m  
    2.84000n      6.0655u    900.0141m  
    2.85000n      3.3294u    900.0070m  
    2.86000n    593.2268n    899.9999m  
    2.87000n     -2.1429u    899.9928m  
    2.88000n     -4.8791u    899.9857m  
    2.89000n     -7.6152u    899.9786m  
    2.90000n    -10.3514u    899.9715m  
    2.91000n    -13.0875u    899.9644m  
    2.92000n    -15.8236u    899.9573m  
    2.93000n    -18.5598u    899.9502m  
    2.94000n    -21.2959u    899.9431m  
    2.95000n    -24.0321u    899.9360m  
    2.96000n    -26.7682u    899.9289m  
    2.97000n    -21.0848u    899.9436m  
    2.98000n    -15.0039u    899.9594m  
    2.99000n     -8.9229u    899.9752m  
    3.00000n     -2.8420u    899.9910m  
    3.01000n      3.2390u    900.0067m  
    3.02000n      9.3199u    900.0225m  
    3.03000n     15.4009u    900.0383m  
    3.04000n     21.4818u    900.0541m  
    3.05000n     27.5628u    900.0698m  
    3.06000n      0.         899.9980m  
    3.07000n    745.3131n    900.0003m  
    3.08000n    718.9237n    900.0003m  
    3.09000n      0.         899.9990m  
    3.10000n    534.0351n    899.9997m  
    3.11000n      0.         899.9995m  
    3.12000n      0.         899.9995m  
    3.13000n      0.         899.9995m  
    3.14000n      0.         899.9995m  
    3.15000n      0.         899.9995m  
    3.16000n      0.         899.9995m  
    3.17000n      0.         899.9995m  
    3.18000n      0.         899.9995m  
    3.19000n      0.         899.9995m  
    3.20000n      0.         899.9995m  
    3.21000n      0.         899.9995m  
    3.22000n      0.         899.9995m  
    3.23000n      0.         899.9995m  
    3.24000n      0.         899.9995m  
    3.25000n      0.         899.9995m  
    3.26000n      0.         899.9995m  
    3.27000n      0.         899.9995m  
[...]
    3.81000n      0.         899.9995m  
    3.82000n      0.         899.9995m  
    3.83000n      0.         899.9995m  
    3.84000n      0.         899.9995m  
    3.85000n      0.         899.9995m  
    3.86000n      0.         899.9995m  
    3.87000n      0.         899.9995m  
    3.88000n      0.         899.9995m  
    3.89000n      0.         899.9995m  
    3.90000n      0.         899.9995m  
    3.91000n      0.         899.9995m  
    3.92000n      0.         899.9995m  
    3.93000n      0.         899.9995m  
    3.94000n      0.         899.9995m  
    3.95000n      0.         899.9995m  
    3.96000n      0.         899.9995m  
    3.97000n      0.         899.9995m  
    3.98000n      0.         899.9995m  
    3.99000n      0.         899.9995m  
    4.00000n      0.         899.9995m  
y
x

        time    voltage      voltage    
                 outin_11     outin_21  
    0.          899.9995m      0.       
   10.00000p    899.8719m     51.5383u  
   20.00000p    858.1604m     -1.5383m  
   30.00000p    703.9080m     -7.0765m  
   40.00000p    376.7160m    344.1570m  
   50.00000p      5.4632m    898.7214m  
   60.00000p    -47.8295u    900.0058m  
   70.00000p      3.3309u    900.0001m  
   80.00000p      2.1210u    899.9988m  
   90.00000p     -8.3774u    900.0004m  
  100.00000p     -4.4456u    900.0001m  
  110.00000p   -513.8263n    899.9998m  
  120.00000p      3.4180u    899.9995m  
  130.00000p      7.3498u    899.9992m  
  140.00000p      8.4288u    899.9991m  
  150.00000p      6.9421u    899.9992m  
  160.00000p      5.4554u    899.9993m  
  170.00000p      3.9688u    899.9993m  
  180.00000p      2.4821u    899.9994m  
  190.00000p    995.4769n    899.9995m  
  200.00000p      0.         899.9996m  
  210.00000p     -1.9778u    899.9996m  
  220.00000p     -3.4645u    899.9997m  
  230.00000p     -4.9511u    899.9998m  
  240.00000p     -6.4378u    899.9998m  
  250.00000p     -7.9245u    899.9999m  
  260.00000p     -7.4838u    899.9999m  
  270.00000p     -6.6270u    899.9999m  
  280.00000p     -5.7702u    899.9998m  
  290.00000p     -4.9134u    899.9998m  
  300.00000p     -4.0567u    899.9998m  
  310.00000p     -3.1999u    899.9997m  
  320.00000p     -2.3431u    899.9997m  
  330.00000p     -1.4863u    899.9997m  
  340.00000p   -629.4988n    899.9996m  
  350.00000p      0.         899.9996m  
  360.00000p      1.0841u    899.9996m  
  370.00000p      1.9409u    899.9996m  
  380.00000p      2.7977u    899.9995m  
  390.00000p      3.6544u    899.9995m  
  400.00000p      4.5112u    899.9995m  
  410.00000p      5.3680u    899.9994m  
  420.00000p      6.2248u    899.9994m  
  430.00000p      7.0816u    899.9994m  
  440.00000p      7.9384u    899.9993m  
  450.00000p      8.7952u    899.9993m  
  460.00000p      8.2507u    899.9993m  
  470.00000p      7.4037u    899.9993m  
  480.00000p      6.5567u    899.9994m  
  490.00000p      5.7097u    899.9994m  
  500.00000p      4.8627u    899.9994m  
  510.00000p      4.0158u    899.9994m  
  520.00000p      3.1688u    899.9995m  
  530.00000p      2.3218u    899.9995m  
  540.00000p      1.4748u    899.9995m  
  550.00000p    627.7664n    899.9995m  
  560.00000p      0.         899.9996m  
  570.00000p     -1.0662u    899.9996m  
  580.00000p     -1.9132u    899.9996m  
  590.00000p     -2.7602u    899.9996m  
  600.00000p     -3.6072u    899.9997m  
  610.00000p     -4.4542u    899.9997m  
  620.00000p     -5.3012u    899.9997m  
  630.00000p     -6.1482u    899.9997m  
  640.00000p     -6.9952u    899.9998m  
  650.00000p     -7.8422u    899.9998m  
  660.00000p     -7.3041u    899.9998m  
  670.00000p     -6.4669u    899.9998m  
  680.00000p     -5.6297u    899.9997m  
  690.00000p     -4.7925u    899.9997m  
  700.00000p     -3.9553u    899.9997m  
  710.00000p     -3.1181u    899.9997m  
  720.00000p     -2.2809u    899.9997m  
  730.00000p     -1.4437u    899.9996m  
  740.00000p   -606.4693n    899.9996m  
  750.00000p      0.         899.9996m  
  760.00000p      1.0679u    899.9996m  
  770.00000p      1.9051u    899.9996m  
  780.00000p      2.7423u    899.9996m  
  790.00000p      3.5795u    899.9995m  
  800.00000p      4.4167u    899.9995m  
  810.00000p      5.2539u    899.9995m  
  820.00000p      6.0911u    899.9995m  
  830.00000p      6.9283u    899.9995m  
  840.00000p      7.7655u    899.9994m  
  850.00000p      8.6027u    899.9994m  
  860.00000p      8.0649u    899.9994m  
  870.00000p      7.2301u    899.9994m  
  880.00000p      6.3953u    899.9995m  
  890.00000p      5.5606u    899.9995m  
  900.00000p      4.7258u    899.9995m  
  910.00000p      3.8910u    899.9995m  
  920.00000p      3.0562u    899.9995m  
  930.00000p      2.2215u    899.9995m  
  940.00000p      1.3867u    899.9995m  
  950.00000p    551.9260n    899.9995m  
  960.00000p      0.         899.9996m  
  970.00000p     -1.1176u    899.9996m  
  980.00000p     -1.9524u    899.9996m  
  990.00000p     -2.7872u    899.9996m  
    1.00000n     -3.6219u    899.9996m  
    1.01000n     -4.4567u    899.9996m  
    1.02000n     -5.2915u    899.9996m  
    1.03000n     -6.1262u    899.9996m  
    1.04000n     -6.9610u    899.9996m  
    1.05000n     -7.7958u    899.9997m  
    1.06000n    517.9613n    899.9997m  
    1.07000n      1.3819u    899.9993m  
    1.08000n      0.         899.9996m  
    1.09000n    655.4273n    899.9996m  
    1.10000n      0.         899.9996m  
    1.11000n      0.         899.9996m  
    1.12000n      0.         899.9996m  
    1.13000n      0.         899.9996m  
    1.14000n      0.         899.9996m  
    1.15000n      0.         899.9996m  
    1.16000n      0.         899.9996m  
    1.17000n      0.         899.9996m  
    1.18000n      0.         899.9996m  
    1.19000n      0.         899.9996m  
    1.20000n      0.         899.9996m  
    1.21000n      0.         899.9996m  
    1.22000n      0.         899.9996m  
    1.23000n      0.         899.9996m  
    1.24000n      0.         899.9996m  
    1.25000n      0.         899.9996m  
    1.26000n      0.         899.9996m  
    1.27000n      0.         899.9996m  
    1.28000n      0.         899.9996m  
    1.29000n      0.         899.9996m  
    1.30000n      0.         899.9996m  
    1.31000n      0.         899.9996m  
    1.32000n      0.         899.9996m  
    1.33000n      0.         899.9996m  
    1.34000n      0.         899.9996m  
    1.35000n      0.         899.9996m  
    1.36000n      0.         899.9996m  
    1.37000n      0.         899.9996m  
    1.38000n      0.         899.9996m  
    1.39000n      0.         899.9996m  
    1.40000n      0.         899.9996m  
    1.41000n      0.         899.9996m  
    1.42000n      0.         899.9996m  
    1.43000n      0.         899.9996m  
    1.44000n      0.         899.9996m  
    1.45000n      0.         899.9996m  
    1.46000n      0.         899.9996m  
    1.47000n      0.         899.9996m  
    1.48000n      0.         899.9996m  
    1.49000n      0.         899.9996m  
    1.50000n      0.         899.9996m  
    1.51000n      0.         899.9996m  
    1.52000n      0.         899.9996m  
    1.53000n      0.         899.9996m  
    1.54000n      0.         899.9996m  
    1.55000n      0.         899.9996m  
    1.56000n      0.         899.9996m  
    1.57000n      0.         899.9996m  
    1.58000n      0.         899.9996m  
    1.59000n      0.         899.9996m  
    1.60000n      0.         899.9996m  
    1.61000n      0.         899.9996m  
    1.62000n      0.         899.9996m  
    1.63000n      0.         899.9996m  
    1.64000n      0.         899.9996m  
    1.65000n      0.         899.9996m  
    1.66000n      0.         899.9996m  
    1.67000n      0.         899.9996m  
    1.68000n      0.         899.9996m  
    1.69000n      0.         899.9996m  
    1.70000n      0.         899.9996m  
    1.71000n      0.         899.9996m  
    1.72000n      0.         899.9996m  
    1.73000n      0.         899.9996m  
    1.74000n      0.         899.9996m  
    1.75000n      0.         899.9996m  
    1.76000n      0.         899.9996m  
    1.77000n      0.         899.9996m  
    1.78000n      0.         899.9996m  
    1.79000n      0.         899.9996m  
    1.80000n      0.         899.9996m  
    1.81000n      0.         899.9996m  
    1.82000n      0.         899.9996m  
    1.83000n      0.         899.9996m  
    1.84000n      0.         899.9996m  
    1.85000n      0.         899.9996m  
    1.86000n      0.         899.9996m  
    1.87000n      0.         899.9996m  
    1.88000n      0.         899.9996m  
    1.89000n      0.         899.9996m  
    1.90000n      0.         899.9996m  
    1.91000n      0.         899.9996m  
    1.92000n      0.         899.9996m  
    1.93000n      0.         899.9996m  
    1.94000n      0.         899.9996m  
    1.95000n      0.         899.9996m  
    1.96000n      0.         899.9996m  
    1.97000n      0.         899.9996m  
    1.98000n      0.         899.9996m  
    1.99000n      0.         899.9996m  
    2.00000n      0.         899.9996m  
    2.01000n      0.         899.9996m  
    2.02000n      0.         899.9996m  
    2.03000n      0.         899.9996m  
    2.04000n      0.         899.9996m  
    2.05000n      0.         899.9996m  
    2.06000n     35.0514u    900.0055m  
    2.07000n     -2.3045m    899.7502m  
    2.08000n     -5.2336u    901.1913m  
    2.09000n    351.3083m    751.3850m  
    2.10000n    878.2380m     -5.8047m  
    2.11000n    899.9292m     83.1292u  
    2.12000n    900.0560m    109.4604u  
    2.13000n    899.9762m    -44.6941u  
    2.14000n    899.9496m    -97.7016u  
    2.15000n    899.9935m    -11.5941u  
    2.16000n    900.0373m     74.5133u  
    2.17000n    900.0675m    133.7338u  
    2.18000n    900.0451m     89.9198u  
    2.19000n    900.0227m     46.1059u  
    2.20000n    900.0003m      2.2919u  
    2.21000n    899.9780m    -41.5221u  
    2.22000n    899.9556m    -85.3361u  
    2.23000n    899.9332m   -129.1500u  
    2.24000n    899.9359m   -123.9043u  
    2.25000n    899.9471m   -101.9701u  
    2.26000n    899.9583m    -80.0359u  
    2.27000n    899.9695m    -58.1017u  
    2.28000n    899.9808m    -36.1675u  
    2.29000n    899.9920m    -14.2333u  
    2.30000n    900.0032m      7.7009u  
    2.31000n    900.0144m     29.6351u  
    2.32000n    900.0257m     51.5693u  
    2.33000n    900.0369m     73.5035u  
    2.34000n    900.0481m     95.4377u  
    2.35000n    900.0593m    117.3719u  
    2.36000n    900.0705m    139.3061u  
    2.37000n    900.0642m    126.9646u  
    2.38000n    900.0571m    113.0046u  
    2.39000n    900.0499m     99.0446u  
    2.40000n    900.0428m     85.0846u  
    2.41000n    900.0356m     71.1246u  
    2.42000n    900.0285m     57.1646u  
    2.43000n    900.0213m     43.2046u  
    2.44000n    900.0142m     29.2446u  
    2.45000n    900.0070m     15.2846u  
    2.46000n    899.9999m      1.3246u  
    2.47000n    899.9928m    -12.6354u  
    2.48000n    899.9856m    -26.5954u  
    2.49000n    899.9785m    -40.5554u  
    2.50000n    899.9713m    -54.5154u  
    2.51000n    899.9642m    -68.4753u  
    2.52000n    899.9570m    -82.4353u  
    2.53000n    899.9499m    -96.3953u  
    2.54000n    899.9427m   -110.3553u  
    2.55000n    899.9356m   -124.3153u  
    2.56000n    899.9284m   -138.2753u  
    2.57000n    899.9349m   -125.6249u  
    2.58000n    899.9420m   -111.7178u  
    2.59000n    899.9492m    -97.8108u  
    2.60000n    899.9563m    -83.9038u  
    2.61000n    899.9634m    -69.9968u  
    2.62000n    899.9705m    -56.0898u  
    2.63000n    899.9776m    -42.1828u  
    2.64000n    899.9848m    -28.2758u  
    2.65000n    899.9919m    -14.3687u  
    2.66000n    899.9990m      0.       
    2.67000n    900.0061m     13.4453u  
    2.68000n    900.0133m     27.3523u  
    2.69000n    900.0204m     41.2593u  
    2.70000n    900.0275m     55.1663u  
    2.71000n    900.0346m     69.0733u  
    2.72000n    900.0418m     82.9803u  
    2.73000n    900.0489m     96.8874u  
    2.74000n    900.0560m    110.7944u  
    2.75000n    900.0631m    124.7014u  
    2.76000n    900.0703m    138.6084u  
    2.77000n    900.0638m    126.0059u  
    2.78000n    900.0567m    112.1516u  
    2.79000n    900.0496m     98.2974u  
    2.80000n    900.0425m     84.4431u  
    2.81000n    900.0354m     70.5888u  
    2.82000n    900.0283m     56.7346u  
    2.83000n    900.0212m     42.8803u  
    2.84000n    900.0141m     29.0260u  
    2.85000n    900.0070m     15.1718u  
    2.86000n    899.9999m      1.3175u  
    2.87000n    899.9928m    -12.5367u  
    2.88000n    899.9857m    -26.3910u  
    2.89000n    899.9786m    -40.2453u  
    2.90000n    899.9715m    -54.0995u  
    2.91000n    899.9644m    -67.9538u  
    2.92000n    899.9573m    -81.8081u  
    2.93000n    899.9502m    -95.6623u  
    2.94000n    899.9431m   -109.5166u  
    2.95000n    899.9360m   -123.3708u  
    2.96000n    899.9289m   -137.2251u  
    2.97000n    899.9436m   -108.4833u  
    2.98000n    899.9594m    -77.7301u  
    2.99000n    899.9752m    -46.9770u  
    3.00000n    899.9910m    -16.2238u  
    3.01000n    900.0067m     14.5294u  
    3.02000n    900.0225m     45.2825u  
    3.03000n    900.0383m     76.0357u  
    3.04000n    900.0541m    106.7889u  
    3.05000n    900.0698m    137.5421u  
    3.06000n    899.9980m     -2.5119u  
    3.07000n    900.0003m      2.1223u  
    3.08000n    900.0003m      2.0223u  
    3.09000n    899.9990m   -559.4133n  
    3.10000n    899.9997m    911.2458n  
    3.11000n    899.9995m      0.       
    3.12000n    899.9995m      0.       
    3.13000n    899.9995m      0.       
    3.14000n    899.9995m      0.       
    3.15000n    899.9995m      0.       
    3.16000n    899.9995m      0.       
    3.17000n    899.9995m      0.       
    3.18000n    899.9995m      0.       
    3.19000n    899.9995m      0.       
    3.20000n    899.9995m      0.       
    3.21000n    899.9995m      0.       
    3.22000n    899.9995m      0.       
    3.23000n    899.9995m      0.       
    3.24000n    899.9995m      0.       
    3.25000n    899.9995m      0.       
    3.26000n    899.9995m      0.       
    3.27000n    899.9995m      0.       
    3.28000n    899.9995m      0.       
    3.29000n    899.9995m      0.       
    3.30000n    899.9995m      0.       
    3.31000n    899.9995m      0.       
    3.32000n    899.9995m      0.       
    3.33000n    899.9995m      0.       
    3.34000n    899.9995m      0.       
    3.35000n    899.9995m      0.       
    3.36000n    899.9995m      0.       
    3.37000n    899.9995m      0.       
    3.38000n    899.9995m      0.       
    3.39000n    899.9995m      0.       
    3.40000n    899.9995m      0.       
    3.41000n    899.9995m      0.       
    3.42000n    899.9995m      0.       
    3.43000n    899.9995m      0.       
    3.44000n    899.9995m      0.       
    3.45000n    899.9995m      0.       
    3.46000n    899.9995m      0.       
    3.47000n    899.9995m      0.       
    3.48000n    899.9995m      0.       
    3.49000n    899.9995m      0.       
    3.50000n    899.9995m      0.       
    3.51000n    899.9995m      0.       
    3.52000n    899.9995m      0.       
    3.53000n    899.9995m      0.       
    3.54000n    899.9995m      0.       
    3.55000n    899.9995m      0.       
    3.56000n    899.9995m      0.       
    3.57000n    899.9995m      0.       
    3.58000n    899.9995m      0.       
    3.59000n    899.9995m      0.       
    3.60000n    899.9995m      0.       
    3.61000n    899.9995m      0.       
    3.62000n    899.9995m      0.       
    3.63000n    899.9995m      0.       
    3.64000n    899.9995m      0.       
    3.65000n    899.9995m      0.       
    3.66000n    899.9995m      0.       
    3.67000n    899.9995m      0.       
    3.68000n    899.9995m      0.       
    3.69000n    899.9995m      0.       
    3.70000n    899.9995m      0.       
    3.71000n    899.9995m      0.       
    3.72000n    899.9995m      0.       
    3.73000n    899.9995m      0.       
    3.74000n    899.9995m      0.       
    3.75000n    899.9995m      0.       
    3.76000n    899.9995m      0.       
    3.77000n    899.9995m      0.       
    3.78000n    899.9995m      0.       
    3.79000n    899.9995m      0.       
    3.80000n    899.9995m      0.       
    3.81000n    899.9995m      0.       
    3.82000n    899.9995m      0.       
    3.83000n    899.9995m      0.       
    3.84000n    899.9995m      0.       
    3.85000n    899.9995m      0.       
    3.86000n    899.9995m      0.       
    3.87000n    899.9995m      0.       
    3.88000n    899.9995m      0.       
    3.89000n    899.9995m      0.       
    3.90000n    899.9995m      0.       
    3.91000n    899.9995m      0.       
    3.92000n    899.9995m      0.       
    3.93000n    899.9995m      0.       
    3.94000n    899.9995m      0.       
    3.95000n    899.9995m      0.       
    3.96000n    899.9995m      0.       
    3.97000n    899.9995m      0.       
    3.98000n    899.9995m      0.       
    3.99000n    899.9995m      0.       
    4.00000n    899.9995m      0.       
y
 inv_avg_power00= 172.0841n  from=   0.          to=   4.0000n
 peakpower00=  18.6661u    at=   1.0843n
             from=   0.         to=   4.0000n
 inv_avg_power10=  61.0775n  from=   0.          to=   4.0000n
 peakpower10=  13.2242u    at=   2.0402n
             from=   0.         to=   4.0000n
 inv_avg_power01=  91.7990n  from=   0.          to=   4.0000n
 peakpower01=  18.8531u    at=   2.0891n
             from=   0.         to=   4.0000n
 inv_avg_power11=  34.0967n  from=   0.          to=   4.0000n
 peakpower11=  11.4560u    at=   2.0891n
             from=   0.         to=   4.0000n
 source_power= 590.0178n  from=   0.          to=   4.0000n

          ***** job concluded
1****** HSPICE -- F-2011.09-SP2 64-BIT (Feb 27 2012) linux ******               
 ******  
 $this uut was automatically generated by:

  ******  job statistics summary tnom=  25.000 temp=  25.000 *****
  
  
 ******  Machine Information  ******
 CPU:
 model name	: Intel(R) Xeon(R) CPU E5-2650 v4 @ 2.20GHz
 cpu MHz	: 1975.703
  
 OS:
 Linux version 3.10.0-693.17.1.el7.x86_64 (mockbuild@x86-041.build.eng.bos.redha
 t.com) (gcc version 4.8.5 20150623 (Red Hat 4.8.5-16) (GCC) ) #1 SMP Sun Jan 14
  10:36:03 EST 2018


  ******  HSPICE Threads Information  ******

  Command Line Threads Count :     1
  Available CPU Count        :    24
  Actual Threads Count       :     1


  ******  Circuit Statistics  ******
  # nodes       =      46 # elements   =      19
  # resistors   =       0 # capacitors =       0 # inductors   =       0
  # mutual_inds =       0 # vccs       =       0 # vcvs        =       0
  # cccs        =       0 # ccvs       =       0 # volt_srcs   =       3
  # curr_srcs   =       0 # diodes     =       0 # bjts        =       0
  # jfets       =       0 # mosfets    =      16 # U elements  =       0
  # T elements  =       0 # W elements =       0 # B elements  =       0
  # S elements  =       0 # P elements =       0 # va device   =       0
  # vector_srcs =       0


  ******  Runtime Statistics (seconds)  ******

  analysis           time    # points   tot. iter  conv.iter
  op point           0.02           1         128
  transient          0.04         401         495         109 rev=         6
  readin             0.00
  errchk             0.01
  setup              0.00
  output             0.00


           peak memory used        135.46 megabytes
           total cpu time            0.07 seconds
           total elapsed time        0.35 seconds
           job started at     12:00:54 09/12/2020
           job ended   at     12:00:55 09/12/2020


 lic: Release hspice token(s) 
