***** HSPICE -- F-2011.09-SP2 64-BIT (Feb 27 2012) linux ******
 Input File: ptm7lstp.sp
 lic:
 lic: FLEXlm: v10.8
 lic: USER:   iliabautista         HOSTNAME: itn2.rc.usf.edu
 lic: HOSTID:                      PID:      17725
 lic: Using FLEXlm license file:
 lic: 27000@license0.rc.usf.edu
 lic: Checkout 1 hspice
 lic: License/Maintenance for hspice will expire on 18-jul-2021/2019.06
 lic: 1(in_use)/50(total) FLOATING license(s) on SERVER license0.rc.usf.edu
 lic:
 init: begin read circuit files,  cpu clock=  3.00E-02
       option post     =     2.00
 init: end read circuit files,  cpu clock=  3.00E-02 memory=       158 kb
 init: begin check errors,  cpu clock=  3.00E-02
 **warning**  No DC path to ground from node        0:                outin_40
 init: end check errors,  cpu clock=  3.00E-02 memory=       424 kb
 init: begin setup matrix, pivot=     0 cpu clock=  3.00E-02
       establish matrix -- done,  cpu clock=  3.00E-02 memory=       478 kb
       re-order matrix -- done,  cpu clock=  4.00E-02 memory=       468 kb
 init: end setup matrix,  cpu clock=  4.00E-02 memory=       563 kb
 dcop: begin dcop,  cpu clock=  4.00E-02
 dcop: end dcop,  cpu clock=  7.00E-02 memory=       563 kb  tot_iter=     122
 output: ptm7lstp.mt0
 sweep: tran tran0    begin, stop_t=  8.00E-09 #sweeps= 801 cpu clock=  7.00E-02
 tran: time= 8.4046E-10 tot_iter=      63 conv_iter=      18 cpu clock= 8.00E-02
 tran: time= 2.0000E-09 tot_iter=     185 conv_iter=      47 cpu clock= 9.00E-02
 tran: time= 2.5929E-09 tot_iter=     359 conv_iter=      86 cpu clock= 1.10E-01
 tran: time= 3.2971E-09 tot_iter=     447 conv_iter=     104 cpu clock= 1.10E-01
 tran: time= 4.0000E-09 tot_iter=     453 conv_iter=     107 cpu clock= 1.20E-01
 tran: time= 4.9977E-09 tot_iter=     640 conv_iter=     148 cpu clock= 1.40E-01
 tran: time= 6.0000E-09 tot_iter=     764 conv_iter=     179 cpu clock= 1.50E-01
 tran: time= 6.4790E-09 tot_iter=     941 conv_iter=     216 cpu clock= 1.70E-01
 tran: time= 7.2452E-09 tot_iter=    1068 conv_iter=     244 cpu clock= 1.80E-01
 tran: time= 8.0000E-09 tot_iter=    1074 conv_iter=     247 cpu clock= 1.80E-01
 sweep: tran tran0    end,  cpu clock=  1.80E-01 memory=       564 kb
>info:         ***** hspice job concluded
 lic: Release hspice token(s)
