***** HSPICE -- F-2011.09-SP2 64-BIT (Feb 27 2012) linux ******
 Input File: ptm7lstp.sp
 lic:
 lic: FLEXlm: v10.8
 lic: USER:   iliabautista         HOSTNAME: itn3.rc.usf.edu
 lic: HOSTID:                      PID:      20976
 lic: Using FLEXlm license file:
 lic: 27000@license0.rc.usf.edu
 lic: Checkout 1 hspice
 lic: License/Maintenance for hspice will expire on 18-jul-2021/2019.06
 lic: 1(in_use)/50(total) FLOATING license(s) on SERVER license0.rc.usf.edu
 lic:
 init: begin read circuit files,  cpu clock=  2.00E-02
       option post     =     2.00
 init: end read circuit files,  cpu clock=  2.00E-02 memory=       153 kb
 init: begin check errors,  cpu clock=  2.00E-02
 init: end check errors,  cpu clock=  3.00E-02 memory=       153 kb
 init: begin setup matrix, pivot=     0 cpu clock=  3.00E-02
       establish matrix -- done,  cpu clock=  3.00E-02 memory=       157 kb
       re-order matrix -- done,  cpu clock=  3.00E-02 memory=       156 kb
 init: end setup matrix,  cpu clock=  3.00E-02 memory=       171 kb
 dcop: begin dcop,  cpu clock=  3.00E-02
 dcop: end dcop,  cpu clock=  3.00E-02 memory=       171 kb  tot_iter=       4
 output: ptm7lstp.tr0
 sweep: tran tran0    begin, stop_t=  4.00E-09 #sweeps= 401 cpu clock=  3.00E-02
 tran: time= 4.4807E-10 tot_iter=      73 conv_iter=      22 cpu clock= 3.00E-02
 tran: time= 8.4807E-10 tot_iter=      77 conv_iter=      24 cpu clock= 3.00E-02
 tran: time= 1.2010E-09 tot_iter=     111 conv_iter=      38 cpu clock= 3.00E-02
 tran: time= 1.7230E-09 tot_iter=     152 conv_iter=      48 cpu clock= 3.00E-02
 tran: time= 2.1230E-09 tot_iter=     156 conv_iter=      50 cpu clock= 3.00E-02
 tran: time= 2.5230E-09 tot_iter=     160 conv_iter=      52 cpu clock= 3.00E-02
 tran: time= 2.9230E-09 tot_iter=     164 conv_iter=      54 cpu clock= 3.00E-02
 tran: time= 3.3230E-09 tot_iter=     168 conv_iter=      56 cpu clock= 3.00E-02
 tran: time= 3.7230E-09 tot_iter=     172 conv_iter=      58 cpu clock= 3.00E-02
 tran: time= 4.0000E-09 tot_iter=     176 conv_iter=      60 cpu clock= 3.00E-02
 sweep: tran tran0    end,  cpu clock=  3.00E-02 memory=       171 kb
>info:         ***** hspice job concluded
 lic: Release hspice token(s)
