$DATA1 SOURCE='HSPICE' VERSION='F-2011.09-SP2 64-BIT'
.TITLE '$this uut was automatically generated by:'
 trf_delay_001    tfr_delay_001    trf_delay_002    tfr_delay_002     
 trf_delay_003    tfr_delay_003    trf_delay_004    tfr_delay_004     
 trf_delay_101    tfr_delay_101    trf_delay_102    tfr_delay_102     
 trf_delay_103    tfr_delay_103    trf_delay_104    tfr_delay_104     
 trf_delay_201    tfr_delay_201    trf_delay_202    tfr_delay_202     
 trf_delay_203    tfr_delay_203    trf_delay_204    tfr_delay_204     
 trf_delay_011    tfr_delay_011    trf_delay_012    tfr_delay_012     
 trf_delay_111    tfr_delay_111    trf_delay_112    tfr_delay_112     
 trf_delay_211    tfr_delay_211    trf_delay_212    tfr_delay_212     
 trf_delay_021    tfr_delay_021    trf_delay_121    tfr_delay_121     
 trf_delay_221    tfr_delay_221    inv_avg_power00  peakpower00       
 power_avg        avg_power        temper           alter#            
  1.768e-12        4.651e-12        4.921e-12        1.101e-12        
  4.949e-12        4.394e-12        4.916e-12        4.754e-12        
  3.455e-12        3.869e-12        2.649e-12        3.425e-12        
  3.307e-12        3.469e-12        3.496e-12        3.448e-12        
  2.080e-12        1.628e-12        1.834e-12        2.591e-12        
  1.670e-12        1.732e-12        1.780e-12        1.580e-12        
  1.768e-12        4.686e-12        4.949e-12        4.576e-12        
  2.015e-12        3.869e-12        2.037e-12        3.469e-12        
  2.080e-12        2.300e-12        1.670e-12        2.386e-12        
  1.768e-12        4.689e-12        2.014e-12        3.869e-12        
  2.080e-12        2.296e-12        4.763e-08        6.092e-06        
  3.174e-07       -2.734e-07         25.0000        1                 
