$DATA1 SOURCE='HSPICE' VERSION='F-2011.09-SP2 64-BIT'
.TITLE '$this uut was automatically generated by:'
 inv_avg_power0   peakpower0       trf_delay_01     tfr_delay_01      
 trf_delay_02     tfr_delay_02     trf_delay_03     tfr_delay_03      
 trf_delay_04     tfr_delay_04     inv_avg_power1   peakpower1        
 trf_delay_11     tfr_delay_11     trf_delay_12     tfr_delay_12      
 inv_avg_power2   peakpower2       trf_delay_21     tfr_delay_21      
 power_avg        avg_power        temper           alter#            
  1.662e-06        1.739e-05        2.977e-12        2.714e-12        
  2.933e-12        3.486e-12        2.458e-12        3.274e-12        
  2.679e-12        2.764e-12        1.565e-06        1.739e-05        
  2.977e-12        3.182e-12        2.458e-12        3.075e-12        
  1.504e-06        1.716e-05        2.977e-12        3.426e-12        
  1.836e-05       -1.827e-05         25.0000        1                 
