$DATA1 SOURCE='HSPICE' VERSION='F-2011.09-SP2 64-BIT'
.TITLE '$this uut was automatically generated by:'
 trf_delay_001    tfr_delay_001    trf_delay_002    tfr_delay_002     
 trf_delay_003    tfr_delay_003    trf_delay_004    tfr_delay_004     
 trf_delay_101    tfr_delay_101    trf_delay_102    tfr_delay_102     
 trf_delay_103    tfr_delay_103    trf_delay_104    tfr_delay_104     
 trf_delay_201    tfr_delay_201    trf_delay_202    tfr_delay_202     
 trf_delay_203    tfr_delay_203    trf_delay_204    tfr_delay_204     
 trf_delay_011    tfr_delay_011    trf_delay_012    tfr_delay_012     
 trf_delay_111    tfr_delay_111    trf_delay_112    tfr_delay_112     
 trf_delay_211    tfr_delay_211    trf_delay_212    tfr_delay_212     
 trf_delay_021    tfr_delay_021    trf_delay_121    tfr_delay_121     
 trf_delay_221    tfr_delay_221    inv_avg_power00  peakpower00       
 power_avg        avg_power        temper           alter#            
  1.859e-12        2.056e-12        1.577e-12        1.991e-12        
  1.356e-12        2.077e-12        1.791e-12        2.211e-12        
  1.575e-12        1.615e-12        1.649e-12        1.905e-12        
  1.493e-12        2.225e-12        1.384e-12        1.847e-12        
  1.012e-12        2.677e-14        5.831e-13        3.693e-13        
  2.955e-13        8.995e-13        7.136e-13        1.129e-12        
  1.859e-12        1.554e-12        1.356e-12        2.369e-12        
  1.636e-12        1.615e-12        1.614e-12        2.225e-12        
  1.012e-12        1.770e-12        2.955e-13        5.669e-13        
  1.859e-12        2.491e-12        1.360e-12        1.615e-12        
  1.012e-12        1.265e-12        1.635e-06        1.576e-05        
  2.258e-05       -2.252e-05         25.0000        1                 
