$DATA1 SOURCE='HSPICE' VERSION='F-2011.09-SP2 64-BIT'
.TITLE '$this uut was automatically generated by:'
 trf_delay_001    tfr_delay_001    trf_delay_002    tfr_delay_002     
 trf_delay_101    tfr_delay_101    trf_delay_102    tfr_delay_102     
 trf_delay_011    tfr_delay_011    trf_delay_111    tfr_delay_111     
 inv_avg_power00  peakpower00      inv_avg_power10  peakpower10       
 inv_avg_power01  peakpower01      inv_avg_power11  peakpower11       
 source_power     temper           alter#            
  1.980e-12        1.865e-12        2.030e-12        2.578e-12        
  1.070e-12        4.067e-13        9.217e-13        1.246e-12        
  1.980e-12        2.471e-12        6.938e-13        4.067e-13        
  1.634e-06        1.592e-05        1.558e-06        1.525e-05        
  5.274e-06        1.427e-03        1.510e-06        1.502e-05        
  1.803e-05         25.0000        1                 
