***** HSPICE -- F-2011.09-SP2 64-BIT (Feb 27 2012) linux ******
 Input File: ptm7hp.sp
 lic:
 lic: FLEXlm: v10.8
 lic: USER:   iliabautista         HOSTNAME: itn0.rc.usf.edu
 lic: HOSTID:                      PID:      99718
 lic: Using FLEXlm license file:
 lic: 27000@license0.rc.usf.edu
 lic: Checkout 1 hspice
 lic: License/Maintenance for hspice will expire on 18-jul-2021/2019.06
 lic: 1(in_use)/50(total) FLOATING license(s) on SERVER license0.rc.usf.edu
 lic:
 init: begin read circuit files,  cpu clock=  2.00E-02
       option post     =     2.00
 init: end read circuit files,  cpu clock=  3.00E-02 memory=       162 kb
 init: begin check errors,  cpu clock=  3.00E-02
 init: end check errors,  cpu clock=  6.00E-02 memory=       296 kb
 init: begin setup matrix, pivot=     0 cpu clock=  6.00E-02
       establish matrix -- done,  cpu clock=  6.00E-02 memory=       338 kb
       re-order matrix -- done,  cpu clock=  6.00E-02 memory=       330 kb
 init: end setup matrix,  cpu clock=  6.00E-02 memory=       408 kb
 dcop: begin dcop,  cpu clock=  6.00E-02
 dcop: end dcop,  cpu clock=  6.00E-02 memory=       408 kb  tot_iter=       5
 output: ptm7hp.mt0
 sweep: tran tran0    begin, stop_t=  8.00E-09 #sweeps= 801 cpu clock=  6.00E-02
 tran: time= 8.7064E-10 tot_iter=      86 conv_iter=      23 cpu clock= 8.00E-02
 tran: time= 1.7679E-09 tot_iter=     188 conv_iter=      48 cpu clock= 9.00E-02
 tran: time= 2.4319E-09 tot_iter=     353 conv_iter=      84 cpu clock= 1.00E-01
 tran: time= 3.3017E-09 tot_iter=     448 conv_iter=     107 cpu clock= 1.10E-01
 tran: time= 4.0000E-09 tot_iter=     454 conv_iter=     110 cpu clock= 1.10E-01
 tran: time= 5.0500E-09 tot_iter=     637 conv_iter=     152 cpu clock= 1.30E-01
 tran: time= 6.0000E-09 tot_iter=     739 conv_iter=     179 cpu clock= 1.40E-01
 tran: time= 6.5705E-09 tot_iter=     917 conv_iter=     215 cpu clock= 1.60E-01
 tran: time= 7.2502E-09 tot_iter=     997 conv_iter=     233 cpu clock= 1.70E-01
 tran: time= 8.0000E-09 tot_iter=    1003 conv_iter=     236 cpu clock= 1.70E-01
 sweep: tran tran0    end,  cpu clock=  1.70E-01 memory=       409 kb
>info:         ***** hspice job concluded
 lic: Release hspice token(s)
