***** HSPICE -- F-2011.09-SP2 64-BIT (Feb 27 2012) linux ******
 Input File: ptm7lstp.sp
 lic:
 lic: FLEXlm: v10.8
 lic: USER:   iliabautista         HOSTNAME: itn0.rc.usf.edu
 lic: HOSTID:                      PID:      99775
 lic: Using FLEXlm license file:
 lic: 27000@license0.rc.usf.edu
 lic: Checkout 1 hspice
 lic: License/Maintenance for hspice will expire on 18-jul-2021/2019.06
 lic: 1(in_use)/50(total) FLOATING license(s) on SERVER license0.rc.usf.edu
 lic:
 init: begin read circuit files,  cpu clock=  2.00E-02
       option post     =     2.00
 init: end read circuit files,  cpu clock=  2.00E-02 memory=       162 kb
 init: begin check errors,  cpu clock=  2.00E-02
 init: end check errors,  cpu clock=  5.00E-02 memory=       296 kb
 init: begin setup matrix, pivot=     0 cpu clock=  5.00E-02
       establish matrix -- done,  cpu clock=  5.00E-02 memory=       338 kb
       re-order matrix -- done,  cpu clock=  5.00E-02 memory=       330 kb
 init: end setup matrix,  cpu clock=  5.00E-02 memory=       408 kb
 dcop: begin dcop,  cpu clock=  5.00E-02
 dcop: end dcop,  cpu clock=  5.00E-02 memory=       408 kb  tot_iter=       4
 output: ptm7lstp.mt0
 sweep: tran tran0    begin, stop_t=  8.00E-09 #sweeps= 801 cpu clock=  5.00E-02
 tran: time= 8.5353E-10 tot_iter=      68 conv_iter=      18 cpu clock= 6.00E-02
 tran: time= 1.6907E-09 tot_iter=     142 conv_iter=      36 cpu clock= 7.00E-02
 tran: time= 2.5369E-09 tot_iter=     280 conv_iter=      71 cpu clock= 8.00E-02
 tran: time= 3.2152E-09 tot_iter=     346 conv_iter=      89 cpu clock= 9.00E-02
 tran: time= 4.0000E-09 tot_iter=     354 conv_iter=      93 cpu clock= 9.00E-02
 tran: time= 5.0500E-09 tot_iter=     481 conv_iter=     123 cpu clock= 1.00E-01
 tran: time= 5.8985E-09 tot_iter=     576 conv_iter=     146 cpu clock= 1.10E-01
 tran: time= 6.4341E-09 tot_iter=     718 conv_iter=     183 cpu clock= 1.20E-01
 tran: time= 7.2496E-09 tot_iter=     811 conv_iter=     208 cpu clock= 1.30E-01
 tran: time= 8.0000E-09 tot_iter=     817 conv_iter=     211 cpu clock= 1.30E-01
 sweep: tran tran0    end,  cpu clock=  1.30E-01 memory=       409 kb
>info:         ***** hspice job concluded
 lic: Release hspice token(s)
