 ****** HSPICE -- F-2011.09-SP2 64-BIT (Feb 27 2012) linux ******               
  Copyright (C) 2011 Synopsys, Inc. All Rights Reserved.                        
  Unpublished-rights reserved under US copyright laws.
  This program is protected by law and is subject to the
  terms and conditions of the license agreement from Synopsys.
  Use of this program is your acceptance to be bound by the
  license agreement. HSPICE is the trademark of Synopsys, Inc.
  Input File: ptm7hp.sp                                                         
  Command line options: ptm7hp.sp
 lic:  
 lic: FLEXlm: v10.8 
 lic: USER:   iliabautista         HOSTNAME: itn3.rc.usf.edu 
 lic: HOSTID:                      PID:      89254 
 lic: Using FLEXlm license file: 
 lic: 27000@license0.rc.usf.edu 
 lic: Checkout 1 hspice 
 lic: License/Maintenance for hspice will expire on 18-jul-2021/2019.06 
 lic: 1(in_use)/50(total) FLOATING license(s) on SERVER license0.rc.usf.edu 
 lic:   
  **warning** (../modelfiles/hp/7nfet.pm:4) Model nfet device geometries will not be checked against the limits set by lmin, lmax, nfinmin and nfinmax. To enable this check, add a period(.) to the model name(i.e. enable model selector).
1****** HSPICE -- F-2011.09-SP2 64-BIT (Feb 27 2012) linux ******               
 ******  
 $this uut was automatically generated by:

  ******  circuit name directory
 circuit number to circuit name directory
   number circuitname                     definition         multiplier
        0 main circuit
        1 xinput_0.                       inverter           1.00 
        2 xinput_1.                       inverter           1.00 
        3 xinverter00.                    inverter           1.00 
        4 xinverter10.                    inverter           1.00 
        5 xinverter01.                    inverter           1.00 
        6 xinverter11.                    inverter           1.00 
        7 xoutput_00.                     inverter           1.00 
        8 xoutput_10.                     inverter           1.00 
        9 xinput_0.xpfet.                 pfet               1.00 
       10 xinput_0.xnfet.                 nfet               1.00 
       11 xinput_1.xpfet.                 pfet               1.00 
       12 xinput_1.xnfet.                 nfet               1.00 
       13 xinverter00.xpfet.              pfet               1.00 
       14 xinverter00.xnfet.              nfet               1.00 
       15 xinverter10.xpfet.              pfet               1.00 
       16 xinverter10.xnfet.              nfet               1.00 
       17 xinverter01.xpfet.              pfet               1.00 
       18 xinverter01.xnfet.              nfet               1.00 
       19 xinverter11.xpfet.              pfet               1.00 
       20 xinverter11.xnfet.              nfet               1.00 
       21 xoutput_00.xpfet.               pfet               1.00 
       22 xoutput_00.xnfet.               nfet               1.00 
       23 xoutput_10.xpfet.               pfet               1.00 
       24 xoutput_10.xnfet.               nfet               1.00 
1****** HSPICE -- F-2011.09-SP2 64-BIT (Feb 27 2012) linux ******               
 ******  
 $this uut was automatically generated by:

  ******  mos   model parameters tnom=  25.000 temp=  25.000 *****
 Model Name: pfet 
 BSIM-MG BULK Model(Level72)
   VERSION = 105.03  
   DEVTYPE = -1 
   BULKMOD = 1  
   COREMOD = 0 
   GEOMOD = 1 
   RDSMOD = 1 
   IGCMOD = 1 
   IGBMOD = 1 
   GIDLMOD = 0 
   IIMOD = 0 
   NQSMOD = 0 
   SHMOD = 0 
   RGATEMOD = 0 
   RGEOMOD = 1 
   CGEOMOD = 2 
   CAPMOD = 0 
   LINT =  2e-10 m
   LL =      0 m^(LLN+1)
   LLN =      1 
   DLC =      0 m
   DLBIN =      0 
   LLC =      0 m^(LLN+1)
   EOT = 6.2e-10 m
   TOXP = 1.15e-09 m
   EOTBOX = 1.4e-07 m
   HFIN = 1.8e-08 m
   FECH =      1 
   DELTAW =      0 m
   FECHCV =      1 
   DELTAWCV =      0 m
   NBODY =  1e+22 m^-3
   NSD =  3e+26 m^-3
   PHIG =  4.747 eV
   EPSROX =    3.9 
   EPSRSUB =   11.9 
   EASUB =   4.05 eV
   NI0SUB = 1.1e+16 m^-3
   BG0SUB =   1.12 eV
   NC0SUB = 2.86e+25 m^-3
   NGATE =      0 m^-3
   CIT = 1.3e-05 F/m^2
   CDSC =  0.039 F/m^2
   CDSCD =  0.007 F/m^2
   CDSCDR =  0.007 
   DVT0 =   0.01 
   DVT1 =   0.69 
   PHIN =   0.05 V
   ETA0 =   0.97 
   ETA0R =   0.97 
   DSUB =    0.9 
   K1RSCE =      0 V^1/2
   LPE0 =  5e-09 m
   DVTSHIFT =      0 
   QMFACTOR =      0 
   QMTCENIV =      0 
   QMTCENCV =      0 
   AQMTCEN =      0 
   BQMTCEN = 1.2e-08 
   ETAQM =   0.54 
   QM0 = 0.001143 
   PQM =   0.66 
   QM0ACC =  0.001 
   PQMACC =   0.66 
   VSAT = 1.53e+05 
   AVSAT =      0 
   BVSAT =  1e-07 
   VSAT1 = 1.53e+05 
   AVSAT1 =      0 
   BVSAT1 =  1e-07 
   DELTAVSAT =      1 
   KSATIV =    0.8 
   MEXP =      3 
   AMEXP =      0 
   BMEXP =      1 
   PTWG =      0 
   APTWG =      0 
   BPTWG =  1e-07 
   AT = -0.00156 
   TMEXP =      0 
   PTWGT =  0.004 
   U0 =  0.042 
   ETAMOB =      2 
   UP =      0 
   LPA =      1 
   UA =    0.3 
   AUA =      0 
   BUA =  1e-07 
   EU =    1.8 
   AEU =      0 
   BEU =  1e-07 
   UD =      0 
   AUD =      0 
   BUD =  5e-08 
   UCS =      0 
   UTE =      0 
   UTL = -0.0015 
   UA1 = 0.001032 
   UD1 =      0 
   UCSTE = -0.00478 
   RDSWMIN =      0 
   RDSW =    100 
   ARDSW =      0 
   BRDSW =  1e-07 
   RSWMIN =      0 
   RSW =      0 
   ARSW =      0 
   BRSW =  1e-07 
   RDWMIN =      0 
   RDW =      0 
   ARDW =      0 
   BRDW =  1e-07 
   PRWG =      0 
   WR =      1 
   PRT =  0.001 
   PDIBL1 =    1.3 
   PDIBL2 = 0.0002 
   DROUT =   1.06 
   PVAG =      1 
   PCLM =    0.2 
   APCLM =      0 
   BPCLM =  1e-07 
   PCLMG =      0 
   VASAT =    0.6 
   PCLMCV =  0.013 
   PCLMGCV =      0 
   VASATCV =    0.2 
   RGEXT =      0 ohm
   RGFIN =  0.001 ohm
   RSHS =      0 ohm
   RSHD =      0 ohm
   HEPI =  8e-09 m
   TSILI =  7e-09 m
   RHOC =  5e-13 ohm/m^2
   RHORSD =      1 ohm/m
   RHOEXT =      1 ohm/m
   CRATIO =    0.5 
   DELTAPRSD =      0 m
   SDTERM = 0 
   LSP = 2.2e-09 m
   LDG =  2e-09 m
   EPSRSP =    3.9 
   TGATE = 7.5e-09 m
   TMASK =      0 m
   ASILIEND =      0 m^2
   ARSDEND =      0 m^2
   PRSDEND =      0 m
   NSDE =  9e+25 m^-3
   RGEOA =      1 
   RGEOB =      0 m^-1
   RGEOC =      0 m^-1
   RGEOD =      0 m^-1
   RGEOE =      0 m^-1
   CGEOA =      1 
   CGEOB =      0 m^-1
   CGEOC =      0 m^-1
   CGEOD =      0 m^-1
   CGEOE =      1 
   AIGBINV = 0.0111 (Fs^2/g)^0.5m^-1
   BIGBINV =   0.03 (Fs^2/g)^0.5m^-1
   CIGBINV =  0.006 V^-1
   EIGBINV =    1.1 V
   NIGBINV =    1.2 
   AIGBACC = 0.0149 
   BIGBACC = 0.000949 
   CIGBACC =  0.075 
   NIGBACC =      3 
   AIGC = 0.0136 (Fs^2/g)^0.5m^-1
   BIGC = 0.00171 (Fs^2/g)^0.5m^-1V^-1
   CIGC =  0.075 V^-1
   NIGC =      1 
   DLCIGS =      0 m
   AIGS = 0.0136 (Fs^2/g)^0.5m^-1
   BIGS = 0.00171 (Fs^2/g)^0.5m^-1V^-1
   CIGS =  0.075 V^-1
   DLCIGD =      0 m
   AIGD = 0.0136 (Fs^2/g)^0.5m^-1
   BIGD = 0.00171 (Fs^2/g)^0.5m^-1V^-1
   CIGD =  0.075 V^-1
   POXEDGE =      1 
   AGIDL = 5.729e-12 ohm^-1
   BGIDL =  3e+08 V/m
   EGIDL =    0.1 V
   AGISL = 5.729e-12 ohm^-1
   BGISL =  3e+08 V/m
   EGISL =    0.1 V
   ALPHA0 =      0 mV^-1
   ALPHA1 =      0 V^-1
   BETA0 =     30 V^-1
   ALPHAII =      0 
   BETAII0 =      0 V^-1
   BETAII1 =      0 
   BETAII2 =    0.1 V
   ESATII =  1e+07 V/m
   LII =  5e-10 V/m
   SII0 =    0.5 V^-1
   SII1 =    0.1 
   SII2 =      0 V
   SIID =      0 V
   EOTACC = 6.2e-10 m
   DELVFBACC =      0 V
   CFS = 2.56e-11 F/m
   CFD = 2.65e-11 F/m
   COVS = 2.5e-11 F/m
   COVD = 2.5e-11 F/m
   CGSO =      0 F/m
   CGDO =      0 F/m
   CGSL =      0 F/m
   CGDL =      0 F/m
   CKAPPAS =    0.6 V
   CKAPPAD =    0.6 V
   CGBO =      0 F/m
   CGBL =      0 F/m
   CKAPPAB =    0.6 V
   CSDESW =      0 F/m
   CJS = 0.0005 F/m^2
   CJD = 0.0005 F/m^2
   CJSWS =  5e-10 F/m
   CJSWD =  5e-10 F/m
   CJSWGS =      0 F/m
   CJSWGD =      0 F/m
   PBS =      1 V
   PBD =      1 V
   PBSWS =      1 V
   PBSWD =      1 V
   PBSWGS =      1 V
   PBSWGD =      1 V
   MJS, =    0.5 
   MJD =    0.5 
   MJSWS =   0.33 
   MJSWD =   0.33 
   MJSWGS =   0.33 
   MJSWGD =   0.33 
   SJS =      0 
   SJD =      0 
   SJSWS =      0 
   SJSWD =      0 
   SJSWGS =      0 
   SJSWGD =      0 
   MJS2 =  0.125 
   MJD2 =  0.125 
   MJSWS2 =   0.33 
   MJSWD2 =   0.33 
   MJSWGS2 =   0.33 
   MJSWGD2 =   0.33 
   JSS = 0.0001 A/m^2
   JSD = 0.0001 A/m^2
   JSWS =      0 A/m
   JSWD =      0 A/m
   JSWGS =      0 A/m
   JSWGD =      0 A/m
   NJS =      1 
   NJD =      1 
   IJTHSFWD =    0.1 A
   IJTHDFWD =    0.1 A
   IJTHSREV =    0.1 A
   IJTHDREV =    0.1 A
   BVS =     10 V
   BVD =     10 V
   XJBVS =      1 
   XJBVD =      1 
   JTSS =      0 A/m^2
   JTSD =      0 A/m^2
   JTSSWS =      0 A/m
   JTSSWD =      0 A/m
   JTSSWGS =      0 A/m
   JTSSWGD =      0 A/m
   JTWEFF =      0 m
   NJTS =     20 
   NJTSD =     20 
   NJTSSW =     20 
   NJTSSWD =     20 
   NJTSSWG =     20 
   NJTSSWGD =     20 
   VTSS =     10 V
   VTSD =     10 V
   VTSSWS =     10 V
   VTSSWD =     10 V
   VTSSWGS =     10 V
   VTSSWGD =     10 V
   LINTIGEN =      0 m
   NTGEN =      1 
   AIGEN =      0 m^-3V^-1
   BIGEN =      0 m^-3V^-3
   XRCRG1 =     12 
   XRCRG2 =      1 
   NSEG = 5 
   EF =      1 
   EM = 4.1e+07 V/m
   NOIA = 6.25e+39 eV^-1s^1-EFm^-3
   NOIB = 3.125e+24 eV^-1s^1-EFm^-1
   NOIC = 8.75e+07 eV^-1s^1-EFm
   NTNOI =      1 
   TNOM =  300.1 K
   TBGASUB = 0.000702 eV/K
   TBGBSUB =   1108 K
   KT1 =      0 V
   KT1L =      0 Vm
   IIT =   -0.5 
   TII =      0 
   TGIDL = -0.0003 K^-1
   IGT =    2.5 
   TCJ =      0 K^-1
   TCJSW =      0 K^-1
   TCJSWG =      0 K^-1
   TPB =      0 K^-1
   TPBSW =      0 K^-1
   TPBSWG =      0 K^-1
   XTIS =      3 
   XTID =      3 
   XTSS =   0.02 
   XTSD =   0.02 
   XTSSWS =   0.02 
   XTSSWD =   0.02 
   XTSSWGS =   0.02 
   XTSSWGD =   0.02 
   TNJTS =      0 
   TNJTSD =      0 
   TNJTSSW =      0 
   TNJTSSWD =      0 
   TNJTSSWG =      0 
   TNJTSSWGD =      0 
   RTH0 =   0.01 ohm
   CTH0 =  1e-05 F
   WTH0 =      0 m
   LNBODY =      0 
   NNBODY =      0 
   PNBODY =      0 
   LPHIG =      0 
   NPHIG =      0 
   PPHIG =      0 
   LNGATE =      0 
   NNGATE =      0 
   PNGATE =      0 
   LCIT =      0 
   NCIT =      0 
   PCIT =      0 
   LCDSC =      0 
   NCDSC =      0 
   PCDSC =      0 
   LCDSCD =      0 
   NCDSCD =      0 
   PCDSCD =      0 
   LCDSCDR =      0 
   NCDSCDR =      0 
   PCDSCDR =      0 
   LDVT0 =      0 
   NDVT0 =      0 
   PDVT0 =      0 
   LDVT1 =      0 
   NDVT1 =      0 
   PDVT1 =      0 
   LPHIN =      0 
   NPHIN =      0 
   PPHIN =      0 
   LETA0 =      0 
   NETA0 =      0 
   PETA0 =      0 
   LETA0R =      0 
   NETA0R =      0 
   PETA0R =      0 
   LDSUB =      0 
   NDSUB =      0 
   PDSUB =      0 
   LK1RSCE =      0 
   NK1RSCE =      0 
   PK1RSCE =      0 
   LLPE0 =      0 
   NLPE0 =      0 
   PLPE0 =      0 
   LQMFACTOR =      0 
   NQMFACTOR =      0 
   PQMFACTOR =      0 
   LQMTCENIV =      0 
   NQMTCENIV =      0 
   PQMTCENIV =      0 
   LQMTCENCV =      0 
   NQMTCENCV =      0 
   PQMTCENCV =      0 
   LVSAT =      0 
   NVSAT =      0 
   PVSAT =      0 
   LKSATIV =      0 
   NKSATIV =      0 
   PKSATIV =      0 
   LMEXP =      0 
   NMEXP =      0 
   PMEXP =      0 
   LPTWG =      0 
   NPTWG =      0 
   PPTWG =      0 
   LTHETASAT =      0 
   NTHETASAT =      0 
   PTHETASAT =      0 
   LU0 =      0 
   NU0 =      0 
   PU0 =      0 
   LUP =      0 
   NUP =      0 
   PUP =      0 
   LUA =      0 
   NUA =      0 
   PUA =      0 
   LEU =      0 
   NEU =      0 
   PEU =      0 
   LUD =      0 
   NUD =      0 
   PUD =      0 
   LUCS =      0 
   NUCS =      0 
   PUCS =      0 
   LPCLM =      0 
   NPCLM =      0 
   PPCLM =      0 
   LPCLMCV =      0 
   NPCLMCV =      0 
   PPCLMCV =      0 
   LRDSW =      0 
   NRDSW =      0 
   PRDSW =      0 
   LRSW =      0 
   NRSW =      0 
   PRSW =      0 
   LRDW =      0 
   NRDW =      0 
   PRDW =      0 
   LPRWG =      0 
   NPRWG =      0 
   PPRWG =      0 
   LWR =      0 
   NWR =      0 
   PWR =      0 
   LPDIBL1 =      0 
   NPDIBL1 =      0 
   PPDIBL1 =      0 
   LPDIBL2 =      0 
   NPDIBL2 =      0 
   PPDIBL2 =      0 
   LDROUT =      0 
   NDROUT =      0 
   PDROUT =      0 
   LPVAG =      0 
   NPVAG =      0 
   PPVAG =      0 
   LAIGBINV =      0 
   NAIGBINV =      0 
   PAIGBINV =      0 
   LBIGBINV =      0 
   NBIGBINV =      0 
   PBIGBINV =      0 
   LCIGBINV =      0 
   NCIGBINV =      0 
   PCIGBINV =      0 
   LEIGBINV =      0 
   NEIGBINV =      0 
   PEIGBINV =      0 
   LNIGBINV =      0 
   NNIGBINV =      0 
   PNIGBINV =      0 
   LAIGC =      0 
   NAIGC =      0 
   PAIGC =      0 
   LBIGC =      0 
   NBIGC =      0 
   PBIGC =      0 
   LCIGC =      0 
   NCIGC =      0 
   PCIGC =      0 
   LNIGC =      0 
   NNIGC =      0 
   PNIGC =      0 
   LAIGS =      0 
   NAIGS =      0 
   PAIGS =      0 
   LBIGS =      0 
   NBIGS =      0 
   PBIGS =      0 
   LCIGS =      0 
   NCIGS =      0 
   PCIGS =      0 
   LAIGD =      0 
   NAIGD =      0 
   PAIGD =      0 
   LBIGD =      0 
   NBIGD =      0 
   PBIGD =      0 
   LCIGD =      0 
   NCIGD =      0 
   PCIGD =      0 
   LPOXEDGE =      0 
   NPOXEDGE =      0 
   PPOXEDGE =      0 
   LAGIDL =      0 
   NAGIDL =      0 
   PAGIDL =      0 
   LBGIDL =      0 
   NBGIDL =      0 
   PBGIDL =      0 
   LEGIDL =      0 
   NEGIDL =      0 
   PEGIDL =      0 
   LAGISL =      0 
   NAGISL =      0 
   PAGISL =      0 
   LBGISL =      0 
   NBGISL =      0 
   PBGISL =      0 
   LEGISL =      0 
   NEGISL =      0 
   PEGISL =      0 
   LALPHA0 =      0 
   NALPHA0 =      0 
   PALPHA0 =      0 
   LALPHA1 =      0 
   NALPHA1 =      0 
   PALPHA1 =      0 
   LBETA0 =      0 
   NBETA0 =      0 
   PBETA0 =      0 
   LALPHAII =      0 
   NALPHAII =      0 
   PALPHAII =      0 
   LBETAII0 =      0 
   NBETAII0 =      0 
   PBETAII0 =      0 
   LBETAII1 =      0 
   NBETAII1 =      0 
   PBETAII1 =      0 
   LBETAII2 =      0 
   NBETAII2 =      0 
   PBETAII2 =      0 
   LESATII =      0 
   NESATII =      0 
   PESATII =      0 
   LLII =      0 
   NLII =      0 
   PLII =      0 
   LSII0 =      0 
   NSII0 =      0 
   PSII0 =      0 
   LSII1 =      0 
   NSII1 =      0 
   PSII1 =      0 
   LSII2 =      0 
   NSII2 =      0 
   PSII2 =      0 
   LSIID =      0 
   NSIID =      0 
   PSIID =      0 
   LCFS =      0 
   NCFS =      0 
   PCFS =      0 
   LCFD =      0 
   NCFD =      0 
   PCFD =      0 
   LCOVS =      0 
   NCOVS =      0 
   PCOVS =      0 
   LCOVD =      0 
   NCOVD =      0 
   PCOVD =      0 
   LCGSL =      0 
   NCGSL =      0 
   PCGSL =      0 
   LCGDL =      0 
   NCGDL =      0 
   PCGDL =      0 
   LCKAPPAS =      0 
   NCKAPPAS =      0 
   PCKAPPAS =      0 
   LCKAPPAD =      0 
   NCKAPPAD =      0 
   PCKAPPAD =      0 
   LCGBL =      0 
   NCGBL =      0 
   PCGBL =      0 
   LCKAPPAB =      0 
   NCKAPPAB =      0 
   PCKAPPAB =      0 
   LNTGEN =      0 
   NNTGEN =      0 
   PNTGEN =      0 
   LAIGEN =      0 
   NAIGEN =      0 
   PAIGEN =      0 
   LBIGEN =      0 
   NBIGEN =      0 
   PBIGEN =      0 
   LXRCRG1 =      0 
   NXRCRG1 =      0 
   PXRCRG1 =      0 
   LXRCRG2 =      0 
   NXRCRG2 =      0 
   PXRCRG2 =      0 
   LINTNOI =      0 
   NINTNOI =      0 
   PINTNOI =      0 
   LUTE =      0 
   NUTE =      0 
   PUTE =      0 
   LUTL =      0 
   NUTL =      0 
   PUTL =      0 
   LUA1 =      0 
   NUA1 =      0 
   PUA1 =      0 
   LUD1 =      0 
   NUD1 =      0 
   PUD1 =      0 
   LUCSTE =      0 
   NUCSTE =      0 
   PUCSTE =      0 
   LPTWGT =      0 
   NPTWGT =      0 
   PPTWGT =      0 
   LAT =      0 
   NAT =      0 
   PAT =      0 
   LSTTHETASAT =      0 
   NSTTHETASAT =      0 
   PSTTHETASAT =      0 
   LPRT =      0 
   NPRT =      0 
   PPRT =      0 
   LIIT =      0 
   NIIT =      0 
   PIIT =      0 
   LTII =      0 
   NTII =      0 
   PTII =      0 
   LTGIDL =      0 
   NTGIDL =      0 
   PTGIDL =      0 
   LIGT =      0 
   NIGT =      0 
   PIGT =      0 
   L = 1.1e-08 m
   D =  4e-08 m
   TFIN = 6.5e-09 m
   FPITCH = 2.2e-08 m
   NF = 1 
   NFIN = 1 
   NGCON = 1 
   ASEO =      0 m^2
   ADEO =      0 m^2
   PSEO =      0 m
   PDEO =      0 m
   ASEJ =      0 m^2
   ADEJ =      0 m^2
   PSEJ =      0 m
   PDEJ =      0 m
   CGSP =      0 F
   CGDP =      0 F
   CDSP =      0 F
   NRS =      0 
   NRD =      0 
   LRSD = 1.1e-08 m
   XL =      0 m
   DELVTRAND =      0 
   U0MULT =      1 
   IDS0MULT =      1 
   Lmin =  1e-08 m
   Lmax =  3e-08 m
   NFINmin = 0 
   NFINmax = 1 
   LVSAT1 =      0 
   NVSAT1 =      0 
   PVSAT1 =      0 
   LETAMOB =      0 
   NETAMOB =      0 
   PETAMOB =      0 
   LPCLMG =      0 
   NPCLMG =      0 
   PPCLMG =      0 
   LVASAT =      0 
   NVASAT =      0 
   PVASAT =      0 
   LAIGBACC =      0 
   NAIGBACC =      0 
   PAIGBACC =      0 
   LBIGBACC =      0 
   NBIGBACC =      0 
   PBIGBACC =      0 
   LCIGBACC =      0 
   NCIGBACC =      0 
   PCIGBACC =      0 
   LNIGBACC =      0 
   NNIGBACC =      0 
   PNIGBACC =      0 
 Model Name: nfet 
 BSIM-MG BULK Model(Level72)
   VERSION = 105.03  
   DEVTYPE = 1 
   BULKMOD = 1  
   COREMOD = 0 
   GEOMOD = 1 
   RDSMOD = 1 
   IGCMOD = 1 
   IGBMOD = 1 
   GIDLMOD = 0 
   IIMOD = 0 
   NQSMOD = 0 
   SHMOD = 0 
   RGATEMOD = 0 
   RGEOMOD = 1 
   CGEOMOD = 2 
   CAPMOD = 0 
   LINT =  2e-10 m
   LL =      0 m^(LLN+1)
   LLN =      1 
   DLC =      0 m
   DLBIN =      0 
   LLC =      0 m^(LLN+1)
   EOT = 6.2e-10 m
   TOXP = 1.15e-09 m
   EOTBOX = 1.4e-07 m
   HFIN = 1.8e-08 m
   FECH =      1 
   DELTAW =      0 m
   FECHCV =      1 
   DELTAWCV =      0 m
   NBODY =  1e+22 m^-3
   NSD =  3e+26 m^-3
   PHIG =  4.424 eV
   EPSROX =    3.9 
   EPSRSUB =   11.9 
   EASUB =   4.05 eV
   NI0SUB = 1.1e+16 m^-3
   BG0SUB =   1.12 eV
   NC0SUB = 2.86e+25 m^-3
   NGATE =      0 m^-3
   CIT = 1.3e-05 F/m^2
   CDSC =  0.039 F/m^2
   CDSCD =  0.007 F/m^2
   CDSCDR =  0.007 
   DVT0 =   0.01 
   DVT1 =   0.69 
   PHIN =   0.05 V
   ETA0 = 0.6785 
   ETA0R = 0.6785 
   DSUB =    0.9 
   K1RSCE =      0 V^1/2
   LPE0 =  5e-09 m
   DVTSHIFT =      0 
   QMFACTOR =      0 
   QMTCENIV =      0 
   QMTCENCV =      0 
   AQMTCEN =      0 
   BQMTCEN = 1.2e-08 
   ETAQM =   0.54 
   QM0 = 0.001143 
   PQM =   0.66 
   QM0ACC =  0.001 
   PQMACC =   0.66 
   VSAT = 1.6e+05 
   AVSAT =      0 
   BVSAT =  1e-07 
   VSAT1 = 1.6e+05 
   AVSAT1 =      0 
   BVSAT1 =  1e-07 
   DELTAVSAT =      1 
   KSATIV =    0.8 
   MEXP =      3 
   AMEXP =      0 
   BMEXP =      1 
   PTWG =      0 
   APTWG =      0 
   BPTWG =  1e-07 
   AT = -0.00156 
   TMEXP =      0 
   PTWGT =  0.004 
   U0 =  0.065 
   ETAMOB =      2 
   UP =      0 
   LPA =      1 
   UA =    0.3 
   AUA =      0 
   BUA =  1e-07 
   EU =    1.8 
   AEU =      0 
   BEU =  1e-07 
   UD =      0 
   AUD =      0 
   BUD =  5e-08 
   UCS =      0 
   UTE =      0 
   UTL = -0.0015 
   UA1 = 0.001032 
   UD1 =      0 
   UCSTE = -0.00478 
   RDSWMIN =      0 
   RDSW =    100 
   ARDSW =      0 
   BRDSW =  1e-07 
   RSWMIN =      0 
   RSW =      0 
   ARSW =      0 
   BRSW =  1e-07 
   RDWMIN =      0 
   RDW =      0 
   ARDW =      0 
   BRDW =  1e-07 
   PRWG =      0 
   WR =      1 
   PRT =  0.001 
   PDIBL1 =    1.3 
   PDIBL2 = 0.0002 
   DROUT =   1.06 
   PVAG =      1 
   PCLM =    0.2 
   APCLM =      0 
   BPCLM =  1e-07 
   PCLMG =      0 
   VASAT =    0.6 
   PCLMCV =  0.013 
   PCLMGCV =      0 
   VASATCV =    0.2 
   RGEXT =      0 ohm
   RGFIN =  0.001 ohm
   RSHS =      0 ohm
   RSHD =      0 ohm
   HEPI =  8e-09 m
   TSILI =  7e-09 m
   RHOC =  4e-13 ohm/m^2
   RHORSD =      1 ohm/m
   RHOEXT =      1 ohm/m
   CRATIO =    0.5 
   DELTAPRSD =      0 m
   SDTERM = 0 
   LSP = 2.2e-09 m
   LDG =  2e-09 m
   EPSRSP =    3.9 
   TGATE = 7.5e-09 m
   TMASK =      0 m
   ASILIEND =      0 m^2
   ARSDEND =      0 m^2
   PRSDEND =      0 m
   NSDE =  9e+25 m^-3
   RGEOA =      1 
   RGEOB =      0 m^-1
   RGEOC =      0 m^-1
   RGEOD =      0 m^-1
   RGEOE =      0 m^-1
   CGEOA =      1 
   CGEOB =      0 m^-1
   CGEOC =      0 m^-1
   CGEOD =      0 m^-1
   CGEOE =      1 
   AIGBINV = 0.0111 (Fs^2/g)^0.5m^-1
   BIGBINV =   0.03 (Fs^2/g)^0.5m^-1
   CIGBINV =  0.006 V^-1
   EIGBINV =    1.1 V
   NIGBINV =    1.2 
   AIGBACC = 0.0149 
   BIGBACC = 0.000949 
   CIGBACC =  0.075 
   NIGBACC =      3 
   AIGC = 0.0136 (Fs^2/g)^0.5m^-1
   BIGC = 0.00171 (Fs^2/g)^0.5m^-1V^-1
   CIGC =  0.075 V^-1
   NIGC =      1 
   DLCIGS =      0 m
   AIGS = 0.0136 (Fs^2/g)^0.5m^-1
   BIGS = 0.00171 (Fs^2/g)^0.5m^-1V^-1
   CIGS =  0.075 V^-1
   DLCIGD =      0 m
   AIGD = 0.0136 (Fs^2/g)^0.5m^-1
   BIGD = 0.00171 (Fs^2/g)^0.5m^-1V^-1
   CIGD =  0.075 V^-1
   POXEDGE =      1 
   AGIDL = 5.729e-12 ohm^-1
   BGIDL =  3e+08 V/m
   EGIDL =    0.1 V
   AGISL = 5.729e-12 ohm^-1
   BGISL =  3e+08 V/m
   EGISL =    0.1 V
   ALPHA0 =      0 mV^-1
   ALPHA1 =      0 V^-1
   BETA0 =     30 V^-1
   ALPHAII =      0 
   BETAII0 =      0 V^-1
   BETAII1 =      0 
   BETAII2 =    0.1 V
   ESATII =  1e+07 V/m
   LII =  5e-10 V/m
   SII0 =    0.5 V^-1
   SII1 =    0.1 
   SII2 =      0 V
   SIID =      0 V
   EOTACC = 6.2e-10 m
   DELVFBACC =      0 V
   CFS = 2.56e-11 F/m
   CFD = 2.65e-11 F/m
   COVS = 2.5e-11 F/m
   COVD = 2.5e-11 F/m
   CGSO =      0 F/m
   CGDO =      0 F/m
   CGSL =      0 F/m
   CGDL =      0 F/m
   CKAPPAS =    0.6 V
   CKAPPAD =    0.6 V
   CGBO =      0 F/m
   CGBL =      0 F/m
   CKAPPAB =    0.6 V
   CSDESW =      0 F/m
   CJS = 0.0005 F/m^2
   CJD = 0.0005 F/m^2
   CJSWS =  5e-10 F/m
   CJSWD =  5e-10 F/m
   CJSWGS =      0 F/m
   CJSWGD =      0 F/m
   PBS =      1 V
   PBD =      1 V
   PBSWS =      1 V
   PBSWD =      1 V
   PBSWGS =      1 V
   PBSWGD =      1 V
   MJS, =    0.5 
   MJD =    0.5 
   MJSWS =   0.33 
   MJSWD =   0.33 
   MJSWGS =   0.33 
   MJSWGD =   0.33 
   SJS =      0 
   SJD =      0 
   SJSWS =      0 
   SJSWD =      0 
   SJSWGS =      0 
   SJSWGD =      0 
   MJS2 =  0.125 
   MJD2 =  0.125 
   MJSWS2 =   0.33 
   MJSWD2 =   0.33 
   MJSWGS2 =   0.33 
   MJSWGD2 =   0.33 
   JSS = 0.0001 A/m^2
   JSD = 0.0001 A/m^2
   JSWS =      0 A/m
   JSWD =      0 A/m
   JSWGS =      0 A/m
   JSWGD =      0 A/m
   NJS =      1 
   NJD =      1 
   IJTHSFWD =    0.1 A
   IJTHDFWD =    0.1 A
   IJTHSREV =    0.1 A
   IJTHDREV =    0.1 A
   BVS =     10 V
   BVD =     10 V
   XJBVS =      1 
   XJBVD =      1 
   JTSS =      0 A/m^2
   JTSD =      0 A/m^2
   JTSSWS =      0 A/m
   JTSSWD =      0 A/m
   JTSSWGS =      0 A/m
   JTSSWGD =      0 A/m
   JTWEFF =      0 m
   NJTS =     20 
   NJTSD =     20 
   NJTSSW =     20 
   NJTSSWD =     20 
   NJTSSWG =     20 
   NJTSSWGD =     20 
   VTSS =     10 V
   VTSD =     10 V
   VTSSWS =     10 V
   VTSSWD =     10 V
   VTSSWGS =     10 V
   VTSSWGD =     10 V
   LINTIGEN =      0 m
   NTGEN =      1 
   AIGEN =      0 m^-3V^-1
   BIGEN =      0 m^-3V^-3
   XRCRG1 =     12 
   XRCRG2 =      1 
   NSEG = 5 
   EF =      1 
   EM = 4.1e+07 V/m
   NOIA = 6.25e+39 eV^-1s^1-EFm^-3
   NOIB = 3.125e+24 eV^-1s^1-EFm^-1
   NOIC = 8.75e+07 eV^-1s^1-EFm
   NTNOI =      1 
   TNOM =  300.1 K
   TBGASUB = 0.000702 eV/K
   TBGBSUB =   1108 K
   KT1 =      0 V
   KT1L =      0 Vm
   IIT =   -0.5 
   TII =      0 
   TGIDL = -0.0003 K^-1
   IGT =    2.5 
   TCJ =      0 K^-1
   TCJSW =      0 K^-1
   TCJSWG =      0 K^-1
   TPB =      0 K^-1
   TPBSW =      0 K^-1
   TPBSWG =      0 K^-1
   XTIS =      3 
   XTID =      3 
   XTSS =   0.02 
   XTSD =   0.02 
   XTSSWS =   0.02 
   XTSSWD =   0.02 
   XTSSWGS =   0.02 
   XTSSWGD =   0.02 
   TNJTS =      0 
   TNJTSD =      0 
   TNJTSSW =      0 
   TNJTSSWD =      0 
   TNJTSSWG =      0 
   TNJTSSWGD =      0 
   RTH0 =   0.01 ohm
   CTH0 =  1e-05 F
   WTH0 =      0 m
   LNBODY =      0 
   NNBODY =      0 
   PNBODY =      0 
   LPHIG =      0 
   NPHIG =      0 
   PPHIG =      0 
   LNGATE =      0 
   NNGATE =      0 
   PNGATE =      0 
   LCIT =      0 
   NCIT =      0 
   PCIT =      0 
   LCDSC =      0 
   NCDSC =      0 
   PCDSC =      0 
   LCDSCD =      0 
   NCDSCD =      0 
   PCDSCD =      0 
   LCDSCDR =      0 
   NCDSCDR =      0 
   PCDSCDR =      0 
   LDVT0 =      0 
   NDVT0 =      0 
   PDVT0 =      0 
   LDVT1 =      0 
   NDVT1 =      0 
   PDVT1 =      0 
   LPHIN =      0 
   NPHIN =      0 
   PPHIN =      0 
   LETA0 =      0 
   NETA0 =      0 
   PETA0 =      0 
   LETA0R =      0 
   NETA0R =      0 
   PETA0R =      0 
   LDSUB =      0 
   NDSUB =      0 
   PDSUB =      0 
   LK1RSCE =      0 
   NK1RSCE =      0 
   PK1RSCE =      0 
   LLPE0 =      0 
   NLPE0 =      0 
   PLPE0 =      0 
   LQMFACTOR =      0 
   NQMFACTOR =      0 
   PQMFACTOR =      0 
   LQMTCENIV =      0 
   NQMTCENIV =      0 
   PQMTCENIV =      0 
   LQMTCENCV =      0 
   NQMTCENCV =      0 
   PQMTCENCV =      0 
   LVSAT =      0 
   NVSAT =      0 
   PVSAT =      0 
   LKSATIV =      0 
   NKSATIV =      0 
   PKSATIV =      0 
   LMEXP =      0 
   NMEXP =      0 
   PMEXP =      0 
   LPTWG =      0 
   NPTWG =      0 
   PPTWG =      0 
   LTHETASAT =      0 
   NTHETASAT =      0 
   PTHETASAT =      0 
   LU0 =      0 
   NU0 =      0 
   PU0 =      0 
   LUP =      0 
   NUP =      0 
   PUP =      0 
   LUA =      0 
   NUA =      0 
   PUA =      0 
   LEU =      0 
   NEU =      0 
   PEU =      0 
   LUD =      0 
   NUD =      0 
   PUD =      0 
   LUCS =      0 
   NUCS =      0 
   PUCS =      0 
   LPCLM =      0 
   NPCLM =      0 
   PPCLM =      0 
   LPCLMCV =      0 
   NPCLMCV =      0 
   PPCLMCV =      0 
   LRDSW =      0 
   NRDSW =      0 
   PRDSW =      0 
   LRSW =      0 
   NRSW =      0 
   PRSW =      0 
   LRDW =      0 
   NRDW =      0 
   PRDW =      0 
   LPRWG =      0 
   NPRWG =      0 
   PPRWG =      0 
   LWR =      0 
   NWR =      0 
   PWR =      0 
   LPDIBL1 =      0 
   NPDIBL1 =      0 
   PPDIBL1 =      0 
   LPDIBL2 =      0 
   NPDIBL2 =      0 
   PPDIBL2 =      0 
   LDROUT =      0 
   NDROUT =      0 
   PDROUT =      0 
   LPVAG =      0 
   NPVAG =      0 
   PPVAG =      0 
   LAIGBINV =      0 
   NAIGBINV =      0 
   PAIGBINV =      0 
   LBIGBINV =      0 
   NBIGBINV =      0 
   PBIGBINV =      0 
   LCIGBINV =      0 
   NCIGBINV =      0 
   PCIGBINV =      0 
   LEIGBINV =      0 
   NEIGBINV =      0 
   PEIGBINV =      0 
   LNIGBINV =      0 
   NNIGBINV =      0 
   PNIGBINV =      0 
   LAIGC =      0 
   NAIGC =      0 
   PAIGC =      0 
   LBIGC =      0 
   NBIGC =      0 
   PBIGC =      0 
   LCIGC =      0 
   NCIGC =      0 
   PCIGC =      0 
   LNIGC =      0 
   NNIGC =      0 
   PNIGC =      0 
   LAIGS =      0 
   NAIGS =      0 
   PAIGS =      0 
   LBIGS =      0 
   NBIGS =      0 
   PBIGS =      0 
   LCIGS =      0 
   NCIGS =      0 
   PCIGS =      0 
   LAIGD =      0 
   NAIGD =      0 
   PAIGD =      0 
   LBIGD =      0 
   NBIGD =      0 
   PBIGD =      0 
   LCIGD =      0 
   NCIGD =      0 
   PCIGD =      0 
   LPOXEDGE =      0 
   NPOXEDGE =      0 
   PPOXEDGE =      0 
   LAGIDL =      0 
   NAGIDL =      0 
   PAGIDL =      0 
   LBGIDL =      0 
   NBGIDL =      0 
   PBGIDL =      0 
   LEGIDL =      0 
   NEGIDL =      0 
   PEGIDL =      0 
   LAGISL =      0 
   NAGISL =      0 
   PAGISL =      0 
   LBGISL =      0 
   NBGISL =      0 
   PBGISL =      0 
   LEGISL =      0 
   NEGISL =      0 
   PEGISL =      0 
   LALPHA0 =      0 
   NALPHA0 =      0 
   PALPHA0 =      0 
   LALPHA1 =      0 
   NALPHA1 =      0 
   PALPHA1 =      0 
   LBETA0 =      0 
   NBETA0 =      0 
   PBETA0 =      0 
   LALPHAII =      0 
   NALPHAII =      0 
   PALPHAII =      0 
   LBETAII0 =      0 
   NBETAII0 =      0 
   PBETAII0 =      0 
   LBETAII1 =      0 
   NBETAII1 =      0 
   PBETAII1 =      0 
   LBETAII2 =      0 
   NBETAII2 =      0 
   PBETAII2 =      0 
   LESATII =      0 
   NESATII =      0 
   PESATII =      0 
   LLII =      0 
   NLII =      0 
   PLII =      0 
   LSII0 =      0 
   NSII0 =      0 
   PSII0 =      0 
   LSII1 =      0 
   NSII1 =      0 
   PSII1 =      0 
   LSII2 =      0 
   NSII2 =      0 
   PSII2 =      0 
   LSIID =      0 
   NSIID =      0 
   PSIID =      0 
   LCFS =      0 
   NCFS =      0 
   PCFS =      0 
   LCFD =      0 
   NCFD =      0 
   PCFD =      0 
   LCOVS =      0 
   NCOVS =      0 
   PCOVS =      0 
   LCOVD =      0 
   NCOVD =      0 
   PCOVD =      0 
   LCGSL =      0 
   NCGSL =      0 
   PCGSL =      0 
   LCGDL =      0 
   NCGDL =      0 
   PCGDL =      0 
   LCKAPPAS =      0 
   NCKAPPAS =      0 
   PCKAPPAS =      0 
   LCKAPPAD =      0 
   NCKAPPAD =      0 
   PCKAPPAD =      0 
   LCGBL =      0 
   NCGBL =      0 
   PCGBL =      0 
   LCKAPPAB =      0 
   NCKAPPAB =      0 
   PCKAPPAB =      0 
   LNTGEN =      0 
   NNTGEN =      0 
   PNTGEN =      0 
   LAIGEN =      0 
   NAIGEN =      0 
   PAIGEN =      0 
   LBIGEN =      0 
   NBIGEN =      0 
   PBIGEN =      0 
   LXRCRG1 =      0 
   NXRCRG1 =      0 
   PXRCRG1 =      0 
   LXRCRG2 =      0 
   NXRCRG2 =      0 
   PXRCRG2 =      0 
   LINTNOI =      0 
   NINTNOI =      0 
   PINTNOI =      0 
   LUTE =      0 
   NUTE =      0 
   PUTE =      0 
   LUTL =      0 
   NUTL =      0 
   PUTL =      0 
   LUA1 =      0 
   NUA1 =      0 
   PUA1 =      0 
   LUD1 =      0 
   NUD1 =      0 
   PUD1 =      0 
   LUCSTE =      0 
   NUCSTE =      0 
   PUCSTE =      0 
   LPTWGT =      0 
   NPTWGT =      0 
   PPTWGT =      0 
   LAT =      0 
   NAT =      0 
   PAT =      0 
   LSTTHETASAT =      0 
   NSTTHETASAT =      0 
   PSTTHETASAT =      0 
   LPRT =      0 
   NPRT =      0 
   PPRT =      0 
   LIIT =      0 
   NIIT =      0 
   PIIT =      0 
   LTII =      0 
   NTII =      0 
   PTII =      0 
   LTGIDL =      0 
   NTGIDL =      0 
   PTGIDL =      0 
   LIGT =      0 
   NIGT =      0 
   PIGT =      0 
   L = 1.1e-08 m
   D =  4e-08 m
   TFIN = 6.5e-09 m
   FPITCH = 2.2e-08 m
   NF = 1 
   NFIN = 1 
   NGCON = 1 
   ASEO =      0 m^2
   ADEO =      0 m^2
   PSEO =      0 m
   PDEO =      0 m
   ASEJ =      0 m^2
   ADEJ =      0 m^2
   PSEJ =      0 m
   PDEJ =      0 m
   CGSP =      0 F
   CGDP =      0 F
   CDSP =      0 F
   NRS =      0 
   NRD =      0 
   LRSD = 1.1e-08 m
   XL =      0 m
   DELVTRAND =      0 
   U0MULT =      1 
   IDS0MULT =      1 
   Lmin =  1e-08 m
   Lmax =  3e-08 m
   NFINmin = 0 
   NFINmax = 1 
   LVSAT1 =      0 
   NVSAT1 =      0 
   PVSAT1 =      0 
   LETAMOB =      0 
   NETAMOB =      0 
   PETAMOB =      0 
   LPCLMG =      0 
   NPCLMG =      0 
   PPCLMG =      0 
   LVASAT =      0 
   NVASAT =      0 
   PVASAT =      0 
   LAIGBACC =      0 
   NAIGBACC =      0 
   PAIGBACC =      0 
   LBIGBACC =      0 
   NBIGBACC =      0 
   PBIGBACC =      0 
   LCIGBACC =      0 
   NCIGBACC =      0 
   PCIGBACC =      0 
   LNIGBACC =      0 
   NNIGBACC =      0 
   PNIGBACC =      0 
  **info** (ptm7hp.sp:15) DC voltage reset to initial transient source value              in source        0:vin_0               new dc=  0.7000D+00
  
 **warning**  No DC path to ground from node        0:outin_30         defined in subckt 0               ; Connected by HSPICE with gdcpath


      
 **info** set option symb=1 internally to help for convergence.
 *****************************************************************
 ******  option summary
 ******
 runlvl  = 3         bypass  = 2         
  Opening plot unit= 15
 file=ptm7hp.pa0                                                               

1****** HSPICE -- F-2011.09-SP2 64-BIT (Feb 27 2012) linux ******               
 ******  
 $this uut was automatically generated by:

  ******  operating point information tnom=  25.000 temp=  25.000 *****
 ***** operating point status is voltage   simulation time is     0.     
     node    =voltage       node    =voltage       node    =voltage

 + 0:inb_0   = 700.0000m  0:inb_1   = 700.0000m  0:outb_00 = 689.3814m
 + 0:outb_10 = 689.3814m  0:outin_00=   9.3910m  0:outin_01=   9.3910m
 + 0:outin_10= 691.2671m  0:outin_11= 691.2671m  0:outin_20=  10.6657m
 + 0:outin_21=  10.6657m  0:outin_30=  21.6379m  0:outin_31=  21.6379m
 + 0:vdd     = 700.0000m

 ******  
 $this uut was automatically generated by:

  ******  transient analysis tnom=  25.000 temp=  25.000 *****
 trf_delay_001=   1.9804p  targ=  30.2061p   trig=  28.2257p
 tfr_delay_001=   1.8649p  targ=   1.0794n   trig=   1.0775n
 trf_delay_002=   2.0298p  targ=   2.0302n   trig=   2.0282n
 tfr_delay_002=   2.5784p  targ=   3.0796n   trig=   3.0770n
 trf_delay_101=   1.0702p  targ=   1.0804n   trig=   1.0794n
 tfr_delay_101= 406.7221f  targ=  30.6128p   trig=  30.2061p
 trf_delay_102= 921.6562f  targ=   3.0805n   trig=   3.0796n
 tfr_delay_102=   1.2465p  targ=   2.0315n   trig=   2.0302n
 trf_delay_011=   1.9804p  targ=  30.2061p   trig=  28.2257p
 tfr_delay_011=   2.4712p  targ=   2.0794n   trig=   2.0769n
 trf_delay_111= 693.7833f  targ=   2.0801n   trig=   2.0794n
 tfr_delay_111= 406.7221f  targ=  30.6128p   trig=  30.2061p
x

        time    voltage      voltage    
                 outin_00     outin_10  
    0.            9.3910m    691.2671m  
   10.00000p     38.3890m    687.4539m  
   20.00000p    104.7320m    672.0414m  
   30.00000p    418.0351m    367.3294m  
   40.00000p    649.3824m     19.5306m  
   50.00000p    687.9945m     11.1123m  
   60.00000p    692.5244m     10.4769m  
   70.00000p    692.5341m     10.4487m  
   80.00000p    692.5264m     10.4682m  
   90.00000p    692.5132m     10.4988m  
  100.00000p    692.5128m     10.4992m  
  110.00000p    692.5172m     10.4882m  
  120.00000p    692.5216m     10.4771m  
  130.00000p    692.5260m     10.4661m  
  140.00000p    692.5304m     10.4551m  
  150.00000p    692.5346m     10.4447m  
  160.00000p    692.5326m     10.4498m  
  170.00000p    692.5306m     10.4549m  
  180.00000p    692.5287m     10.4600m  
  190.00000p    692.5267m     10.4651m  
  200.00000p    692.5247m     10.4701m  
  210.00000p    692.5228m     10.4752m  
  220.00000p    692.5208m     10.4803m  
  230.00000p    692.5188m     10.4854m  
  240.00000p    692.5168m     10.4905m  
  250.00000p    692.5149m     10.4956m  
  260.00000p    692.5129m     10.5007m  
  270.00000p    692.5111m     10.5054m  
  280.00000p    692.5122m     10.5024m  
  290.00000p    692.5134m     10.4994m  
  300.00000p    692.5145m     10.4963m  
  310.00000p    692.5157m     10.4933m  
  320.00000p    692.5168m     10.4903m  
  330.00000p    692.5180m     10.4873m  
  340.00000p    692.5191m     10.4843m  
  350.00000p    692.5203m     10.4813m  
  360.00000p    692.5214m     10.4783m  
  370.00000p    692.5225m     10.4753m  
  380.00000p    692.5237m     10.4723m  
  390.00000p    692.5248m     10.4692m  
  400.00000p    692.5260m     10.4662m  
  410.00000p    692.5271m     10.4632m  
  420.00000p    692.5283m     10.4602m  
  430.00000p    692.5294m     10.4572m  
  440.00000p    692.5306m     10.4542m  
  450.00000p    692.5317m     10.4512m  
  460.00000p    692.5328m     10.4482m  
  470.00000p    692.5339m     10.4455m  
  480.00000p    692.5328m     10.4485m  
  490.00000p    692.5316m     10.4514m  
  500.00000p    692.5305m     10.4544m  
  510.00000p    692.5294m     10.4574m  
  520.00000p    692.5283m     10.4604m  
  530.00000p    692.5272m     10.4634m  
  540.00000p    692.5260m     10.4663m  
  550.00000p    692.5249m     10.4693m  
  560.00000p    692.5238m     10.4723m  
  570.00000p    692.5227m     10.4753m  
  580.00000p    692.5216m     10.4783m  
  590.00000p    692.5205m     10.4812m  
  600.00000p    692.5193m     10.4842m  
  610.00000p    692.5182m     10.4872m  
  620.00000p    692.5171m     10.4902m  
  630.00000p    692.5160m     10.4932m  
  640.00000p    692.5149m     10.4962m  
  650.00000p    692.5137m     10.4991m  
  660.00000p    692.5126m     10.5021m  
  670.00000p    692.5116m     10.5048m  
  680.00000p    692.5127m     10.5018m  
  690.00000p    692.5138m     10.4989m  
  700.00000p    692.5149m     10.4959m  
  710.00000p    692.5160m     10.4930m  
  720.00000p    692.5171m     10.4900m  
  730.00000p    692.5182m     10.4871m  
  740.00000p    692.5193m     10.4841m  
  750.00000p    692.5204m     10.4812m  
  760.00000p    692.5215m     10.4782m  
  770.00000p    692.5225m     10.4753m  
  780.00000p    692.5236m     10.4723m  
  790.00000p    692.5247m     10.4694m  
  800.00000p    692.5258m     10.4664m  
  810.00000p    692.5269m     10.4635m  
  820.00000p    692.5280m     10.4605m  
  830.00000p    692.5291m     10.4576m  
  840.00000p    692.5302m     10.4546m  
  850.00000p    692.5313m     10.4516m  
  860.00000p    692.5324m     10.4487m  
  870.00000p    692.5334m     10.4461m  
  880.00000p    692.5322m     10.4493m  
  890.00000p    692.5310m     10.4525m  
  900.00000p    692.5298m     10.4558m  
  910.00000p    692.5286m     10.4590m  
  920.00000p    692.5275m     10.4623m  
  930.00000p    692.5263m     10.4655m  
  940.00000p    692.5251m     10.4687m  
  950.00000p    692.5239m     10.4720m  
  960.00000p    692.5227m     10.4752m  
  970.00000p    692.5215m     10.4784m  
  980.00000p    692.5204m     10.4817m  
  990.00000p    692.5192m     10.4849m  
    1.00000n    692.5180m     10.4881m  
    1.01000n    692.5168m     10.4914m  
    1.02000n    692.5156m     10.4946m  
    1.03000n    692.5145m     10.4979m  
    1.04000n    692.5133m     10.5011m  
    1.05000n    692.5121m     10.5043m  
    1.06000n    661.2564m     14.6862m  
    1.07000n    582.7045m     38.5826m  
    1.08000n    247.5680m    387.3301m  
    1.09000n     46.3550m    676.9735m  
    1.10000n     13.0177m    690.6390m  
    1.11000n      9.3963m    691.2318m  
    1.12000n      9.3894m    691.2914m  
    1.13000n      9.3909m    691.2553m  
    1.14000n      9.3916m    691.2430m  
    1.15000n      9.3914m    691.2553m  
    1.16000n      9.3912m    691.2676m  
    1.17000n      9.3911m    691.2798m  
    1.18000n      9.3909m    691.2921m  
    1.19000n      9.3908m    691.2927m  
    1.20000n      9.3908m    691.2870m  
    1.21000n      9.3909m    691.2814m  
    1.22000n      9.3909m    691.2758m  
    1.23000n      9.3909m    691.2702m  
    1.24000n      9.3910m    691.2646m  
    1.25000n      9.3910m    691.2590m  
    1.26000n      9.3910m    691.2534m  
    1.27000n      9.3910m    691.2477m  
    1.28000n      9.3911m    691.2421m  
    1.29000n      9.3911m    691.2391m  
    1.30000n      9.3911m    691.2420m  
    1.31000n      9.3911m    691.2449m  
    1.32000n      9.3911m    691.2478m  
    1.33000n      9.3911m    691.2506m  
    1.34000n      9.3911m    691.2535m  
    1.35000n      9.3911m    691.2564m  
    1.36000n      9.3911m    691.2593m  
    1.37000n      9.3911m    691.2621m  
    1.38000n      9.3911m    691.2650m  
    1.39000n      9.3911m    691.2679m  
    1.40000n      9.3911m    691.2708m  
    1.41000n      9.3911m    691.2736m  
    1.42000n      9.3911m    691.2765m  
    1.43000n      9.3911m    691.2794m  
    1.44000n      9.3911m    691.2822m  
    1.45000n      9.3911m    691.2851m  
    1.46000n      9.3911m    691.2880m  
    1.47000n      9.3911m    691.2909m  
    1.48000n      9.3911m    691.2937m  
    1.49000n      9.3911m    691.2948m  
    1.50000n      9.3911m    691.2920m  
    1.51000n      9.3911m    691.2891m  
    1.52000n      9.3911m    691.2863m  
    1.53000n      9.3911m    691.2834m  
    1.54000n      9.3910m    691.2806m  
    1.55000n      9.3910m    691.2777m  
    1.56000n      9.3910m    691.2749m  
    1.57000n      9.3910m    691.2720m  
    1.58000n      9.3910m    691.2692m  
    1.59000n      9.3910m    691.2663m  
    1.60000n      9.3910m    691.2635m  
    1.61000n      9.3910m    691.2606m  
    1.62000n      9.3910m    691.2577m  
    1.63000n      9.3909m    691.2549m  
    1.64000n      9.3909m    691.2520m  
    1.65000n      9.3909m    691.2492m  
    1.66000n      9.3909m    691.2463m  
    1.67000n      9.3909m    691.2435m  
    1.68000n      9.3909m    691.2406m  
    1.69000n      9.3909m    691.2395m  
    1.70000n      9.3909m    691.2424m  
    1.71000n      9.3909m    691.2452m  
    1.72000n      9.3910m    691.2480m  
    1.73000n      9.3910m    691.2509m  
    1.74000n      9.3910m    691.2537m  
    1.75000n      9.3910m    691.2565m  
    1.76000n      9.3910m    691.2594m  
    1.77000n      9.3911m    691.2622m  
    1.78000n      9.3911m    691.2650m  
    1.79000n      9.3911m    691.2679m  
    1.80000n      9.3911m    691.2707m  
    1.81000n      9.3911m    691.2735m  
    1.82000n      9.3912m    691.2764m  
    1.83000n      9.3912m    691.2792m  
    1.84000n      9.3912m    691.2820m  
    1.85000n      9.3912m    691.2849m  
    1.86000n      9.3912m    691.2877m  
    1.87000n      9.3913m    691.2905m  
    1.88000n      9.3913m    691.2934m  
    1.89000n      9.3913m    691.2938m  
    1.90000n      9.3912m    691.2888m  
    1.91000n      9.3912m    691.2839m  
    1.92000n      9.3911m    691.2789m  
    1.93000n      9.3910m    691.2739m  
    1.94000n      9.3910m    691.2690m  
    1.95000n      9.3909m    691.2640m  
    1.96000n      9.3909m    691.2590m  
    1.97000n      9.3908m    691.2541m  
    1.98000n      9.3907m    691.2491m  
    1.99000n      9.3907m    691.2442m  
    2.00000n      9.3906m    691.2392m  
    2.01000n     37.5668m    687.8793m  
    2.02000n    107.0655m    671.0705m  
    2.03000n    417.1806m    366.8071m  
    2.04000n    649.2010m     18.9312m  
    2.05000n    687.8836m     10.7823m  
    2.06000n    692.5266m     10.4798m  
    2.07000n    692.5316m     10.4243m  
    2.08000n    692.5228m     10.4755m  
    2.09000n    692.5226m     10.4753m  
    2.10000n    692.5226m     10.4753m  
    2.11000n    692.5226m     10.4753m  
    2.12000n    692.5226m     10.4753m  
    2.13000n    692.5226m     10.4753m  
    2.14000n    692.5226m     10.4753m  
    2.15000n    692.5226m     10.4753m  
    2.16000n    692.5226m     10.4753m  
    2.17000n    692.5226m     10.4753m  
    2.18000n    692.5226m     10.4753m  
    2.19000n    692.5226m     10.4753m  
    2.20000n    692.5226m     10.4753m  
    2.21000n    692.5226m     10.4753m  
    2.22000n    692.5226m     10.4753m  
    2.23000n    692.5226m     10.4753m  
    2.24000n    692.5226m     10.4753m  
    2.25000n    692.5226m     10.4753m  
    2.26000n    692.5226m     10.4753m  
    2.27000n    692.5226m     10.4753m  
    2.28000n    692.5226m     10.4753m  
    2.29000n    692.5226m     10.4753m  
    2.30000n    692.5226m     10.4753m  
    2.31000n    692.5226m     10.4753m  
    2.32000n    692.5226m     10.4753m  
    2.33000n    692.5226m     10.4753m  
    2.34000n    692.5226m     10.4753m  
    2.35000n    692.5226m     10.4753m  
    2.36000n    692.5226m     10.4753m  
    2.37000n    692.5226m     10.4753m  
    2.38000n    692.5226m     10.4753m  
    2.39000n    692.5226m     10.4753m  
    2.40000n    692.5226m     10.4753m  
    2.41000n    692.5226m     10.4753m  
    2.42000n    692.5226m     10.4753m  
    2.43000n    692.5226m     10.4753m  
    2.44000n    692.5226m     10.4753m  
    2.45000n    692.5226m     10.4753m  
    2.46000n    692.5226m     10.4753m  
    2.47000n    692.5226m     10.4753m  
    2.48000n    692.5226m     10.4753m  
    2.49000n    692.5226m     10.4753m  
    2.50000n    692.5226m     10.4753m  
    2.51000n    692.5226m     10.4753m  
    2.52000n    692.5226m     10.4753m  
    2.53000n    692.5226m     10.4753m  
    2.54000n    692.5226m     10.4753m  
    2.55000n    692.5226m     10.4753m  
    2.56000n    692.5226m     10.4753m  
    2.57000n    692.5226m     10.4753m  
    2.58000n    692.5226m     10.4753m  
    2.59000n    692.5226m     10.4753m  
    2.60000n    692.5226m     10.4753m  
    2.61000n    692.5226m     10.4753m  
    2.62000n    692.5226m     10.4753m  
    2.63000n    692.5226m     10.4753m  
    2.64000n    692.5226m     10.4753m  
    2.65000n    692.5226m     10.4753m  
    2.66000n    692.5226m     10.4753m  
    2.67000n    692.5226m     10.4753m  
    2.68000n    692.5226m     10.4753m  
    2.69000n    692.5226m     10.4753m  
    2.70000n    692.5226m     10.4753m  
    2.71000n    692.5226m     10.4753m  
    2.72000n    692.5226m     10.4753m  
    2.73000n    692.5226m     10.4753m  
    2.74000n    692.5226m     10.4753m  
    2.75000n    692.5226m     10.4753m  
    2.76000n    692.5226m     10.4753m  
    2.77000n    692.5226m     10.4753m  
    2.78000n    692.5226m     10.4753m  
    2.79000n    692.5226m     10.4753m  
    2.80000n    692.5226m     10.4753m  
    2.81000n    692.5226m     10.4753m  
    2.82000n    692.5226m     10.4753m  
    2.83000n    692.5226m     10.4753m  
    2.84000n    692.5226m     10.4753m  
    2.85000n    692.5226m     10.4753m  
    2.86000n    692.5226m     10.4753m  
    2.87000n    692.5226m     10.4753m  
    2.88000n    692.5226m     10.4753m  
    2.89000n    692.5226m     10.4753m  
    2.90000n    692.5226m     10.4753m  
    2.91000n    692.5226m     10.4753m  
    2.92000n    692.5226m     10.4753m  
    2.93000n    692.5226m     10.4753m  
    2.94000n    692.5226m     10.4753m  
    2.95000n    692.5226m     10.4753m  
    2.96000n    692.5226m     10.4753m  
    2.97000n    692.5226m     10.4753m  
    2.98000n    692.5226m     10.4753m  
    2.99000n    692.5226m     10.4753m  
    3.00000n    692.5226m     10.4753m  
    3.01000n    692.5226m     10.4753m  
    3.02000n    692.5226m     10.4753m  
    3.03000n    692.5226m     10.4753m  
    3.04000n    692.5226m     10.4753m  
    3.05000n    692.5226m     10.4753m  
    3.06000n    662.1758m     14.3411m  
    3.07000n    582.9353m     31.4098m  
    3.08000n    233.7781m    383.5785m  
    3.09000n     46.9543m    683.6050m  
    3.10000n     13.2624m    690.8367m  
    3.11000n      9.3911m    691.2490m  
    3.12000n      9.3904m    691.3022m  
    3.13000n      9.3904m    691.2657m  
    3.14000n      9.3904m    691.2343m  
    3.15000n      9.3908m    691.2473m  
    3.16000n      9.3911m    691.2604m  
    3.17000n      9.3914m    691.2734m  
    3.18000n      9.3918m    691.2864m  
    3.19000n      9.3921m    691.2995m  
    3.20000n      9.3919m    691.2945m  
    3.21000n      9.3917m    691.2886m  
    3.22000n      9.3915m    691.2827m  
    3.23000n      9.3913m    691.2768m  
    3.24000n      9.3911m    691.2709m  
    3.25000n      9.3909m    691.2650m  
    3.26000n      9.3907m    691.2591m  
    3.27000n      9.3905m    691.2532m  
    3.28000n      9.3902m    691.2474m  
    3.29000n      9.3900m    691.2415m  
    3.30000n      9.3898m    691.2356m  
    3.31000n      9.3899m    691.2372m  
    3.32000n      9.3900m    691.2405m  
    3.33000n      9.3902m    691.2437m  
    3.34000n      9.3903m    691.2469m  
    3.35000n      9.3904m    691.2502m  
    3.36000n      9.3906m    691.2534m  
    3.37000n      9.3907m    691.2567m  
    3.38000n      9.3908m    691.2599m  
    3.39000n      9.3909m    691.2632m  
    3.40000n      9.3911m    691.2664m  
    3.41000n      9.3912m    691.2696m  
    3.42000n      9.3913m    691.2729m  
    3.43000n      9.3915m    691.2761m  
    3.44000n      9.3916m    691.2794m  
    3.45000n      9.3917m    691.2826m  
    3.46000n      9.3919m    691.2858m  
    3.47000n      9.3920m    691.2891m  
    3.48000n      9.3921m    691.2923m  
    3.49000n      9.3923m    691.2956m  
    3.50000n      9.3924m    691.2988m  
    3.51000n      9.3923m    691.2967m  
    3.52000n      9.3922m    691.2935m  
    3.53000n      9.3920m    691.2903m  
    3.54000n      9.3919m    691.2871m  
    3.55000n      9.3917m    691.2838m  
    3.56000n      9.3916m    691.2806m  
    3.57000n      9.3915m    691.2774m  
    3.58000n      9.3913m    691.2742m  
    3.59000n      9.3912m    691.2710m  
    3.60000n      9.3910m    691.2678m  
    3.61000n      9.3909m    691.2646m  
    3.62000n      9.3907m    691.2613m  
    3.63000n      9.3906m    691.2581m  
    3.64000n      9.3905m    691.2549m  
    3.65000n      9.3903m    691.2517m  
    3.66000n      9.3902m    691.2485m  
    3.67000n      9.3900m    691.2453m  
    3.68000n      9.3899m    691.2421m  
    3.69000n      9.3897m    691.2388m  
    3.70000n      9.3896m    691.2356m  
    3.71000n      9.3897m    691.2377m  
    3.72000n      9.3899m    691.2409m  
    3.73000n      9.3900m    691.2441m  
    3.74000n      9.3902m    691.2473m  
    3.75000n      9.3903m    691.2505m  
    3.76000n      9.3905m    691.2537m  
    3.77000n      9.3906m    691.2568m  
    3.78000n      9.3908m    691.2600m  
    3.79000n      9.3909m    691.2632m  
    3.80000n      9.3911m    691.2664m  
    3.81000n      9.3912m    691.2696m  
    3.82000n      9.3914m    691.2728m  
    3.83000n      9.3915m    691.2760m  
    3.84000n      9.3917m    691.2792m  
    3.85000n      9.3918m    691.2824m  
    3.86000n      9.3920m    691.2855m  
    3.87000n      9.3921m    691.2887m  
    3.88000n      9.3923m    691.2919m  
    3.89000n      9.3925m    691.2951m  
    3.90000n      9.3926m    691.2983m  
    3.91000n      9.3924m    691.2935m  
    3.92000n      9.3920m    691.2871m  
    3.93000n      9.3917m    691.2807m  
    3.94000n      9.3913m    691.2743m  
    3.95000n      9.3910m    691.2679m  
    3.96000n      9.3906m    691.2615m  
    3.97000n      9.3903m    691.2551m  
    3.98000n      9.3900m    691.2487m  
    3.99000n      9.3896m    691.2422m  
    4.00000n      9.3893m    691.2358m  
y
x

        time    voltage      voltage    
                 outin_10     outin_20  
    0.          691.2671m     10.6657m  
   10.00000p    687.4539m     11.1192m  
   20.00000p    672.0414m     13.3261m  
   30.00000p    367.3294m    254.3047m  
   40.00000p     19.5306m    686.9508m  
   50.00000p     11.1123m    689.3351m  
   60.00000p     10.4769m    691.1203m  
   70.00000p     10.4487m    691.0909m  
   80.00000p     10.4682m    691.1080m  
   90.00000p     10.4988m    691.1321m  
  100.00000p     10.4992m    691.1318m  
  110.00000p     10.4882m    691.1223m  
  120.00000p     10.4771m    691.1128m  
  130.00000p     10.4661m    691.1033m  
  140.00000p     10.4551m    691.0938m  
  150.00000p     10.4447m    691.0848m  
  160.00000p     10.4498m    691.0894m  
  170.00000p     10.4549m    691.0939m  
  180.00000p     10.4600m    691.0985m  
  190.00000p     10.4651m    691.1030m  
  200.00000p     10.4701m    691.1076m  
  210.00000p     10.4752m    691.1121m  
  220.00000p     10.4803m    691.1167m  
  230.00000p     10.4854m    691.1212m  
  240.00000p     10.4905m    691.1258m  
  250.00000p     10.4956m    691.1303m  
  260.00000p     10.5007m    691.1349m  
  270.00000p     10.5054m    691.1391m  
  280.00000p     10.5024m    691.1363m  
  290.00000p     10.4994m    691.1336m  
  300.00000p     10.4963m    691.1308m  
  310.00000p     10.4933m    691.1281m  
  320.00000p     10.4903m    691.1254m  
  330.00000p     10.4873m    691.1226m  
  340.00000p     10.4843m    691.1199m  
  350.00000p     10.4813m    691.1171m  
  360.00000p     10.4783m    691.1144m  
  370.00000p     10.4753m    691.1117m  
  380.00000p     10.4723m    691.1089m  
  390.00000p     10.4692m    691.1062m  
  400.00000p     10.4662m    691.1035m  
  410.00000p     10.4632m    691.1007m  
  420.00000p     10.4602m    691.0980m  
  430.00000p     10.4572m    691.0952m  
  440.00000p     10.4542m    691.0925m  
  450.00000p     10.4512m    691.0898m  
  460.00000p     10.4482m    691.0870m  
  470.00000p     10.4455m    691.0846m  
  480.00000p     10.4485m    691.0873m  
  490.00000p     10.4514m    691.0901m  
  500.00000p     10.4544m    691.0928m  
  510.00000p     10.4574m    691.0956m  
  520.00000p     10.4604m    691.0983m  
  530.00000p     10.4634m    691.1011m  
  540.00000p     10.4663m    691.1038m  
  550.00000p     10.4693m    691.1065m  
  560.00000p     10.4723m    691.1093m  
  570.00000p     10.4753m    691.1120m  
  580.00000p     10.4783m    691.1148m  
  590.00000p     10.4812m    691.1175m  
  600.00000p     10.4842m    691.1203m  
  610.00000p     10.4872m    691.1230m  
  620.00000p     10.4902m    691.1258m  
  630.00000p     10.4932m    691.1285m  
  640.00000p     10.4962m    691.1313m  
  650.00000p     10.4991m    691.1340m  
  660.00000p     10.5021m    691.1368m  
  670.00000p     10.5048m    691.1392m  
  680.00000p     10.5018m    691.1365m  
  690.00000p     10.4989m    691.1337m  
  700.00000p     10.4959m    691.1309m  
  710.00000p     10.4930m    691.1282m  
  720.00000p     10.4900m    691.1254m  
  730.00000p     10.4871m    691.1227m  
  740.00000p     10.4841m    691.1199m  
  750.00000p     10.4812m    691.1172m  
  760.00000p     10.4782m    691.1144m  
  770.00000p     10.4753m    691.1117m  
  780.00000p     10.4723m    691.1089m  
  790.00000p     10.4694m    691.1062m  
  800.00000p     10.4664m    691.1034m  
  810.00000p     10.4635m    691.1007m  
  820.00000p     10.4605m    691.0979m  
  830.00000p     10.4576m    691.0951m  
  840.00000p     10.4546m    691.0924m  
  850.00000p     10.4516m    691.0896m  
  860.00000p     10.4487m    691.0869m  
  870.00000p     10.4461m    691.0844m  
  880.00000p     10.4493m    691.0875m  
  890.00000p     10.4525m    691.0906m  
  900.00000p     10.4558m    691.0936m  
  910.00000p     10.4590m    691.0967m  
  920.00000p     10.4623m    691.0997m  
  930.00000p     10.4655m    691.1028m  
  940.00000p     10.4687m    691.1059m  
  950.00000p     10.4720m    691.1089m  
  960.00000p     10.4752m    691.1120m  
  970.00000p     10.4784m    691.1150m  
  980.00000p     10.4817m    691.1181m  
  990.00000p     10.4849m    691.1212m  
    1.00000n     10.4881m    691.1242m  
    1.01000n     10.4914m    691.1273m  
    1.02000n     10.4946m    691.1303m  
    1.03000n     10.4979m    691.1334m  
    1.04000n     10.5011m    691.1365m  
    1.05000n     10.5043m    691.1395m  
    1.06000n     14.6862m    690.6735m  
    1.07000n     38.5826m    682.0149m  
    1.08000n    387.3301m    386.1013m  
    1.09000n    676.9735m     19.1462m  
    1.10000n    690.6390m     12.7831m  
    1.11000n    691.2318m     10.6324m  
    1.12000n    691.2914m     10.6942m  
    1.13000n    691.2553m     10.6489m  
    1.14000n    691.2430m     10.6341m  
    1.15000n    691.2553m     10.6505m  
    1.16000n    691.2676m     10.6669m  
    1.17000n    691.2798m     10.6834m  
    1.18000n    691.2921m     10.6998m  
    1.19000n    691.2927m     10.7004m  
    1.20000n    691.2870m     10.6927m  
    1.21000n    691.2814m     10.6850m  
    1.22000n    691.2758m     10.6774m  
    1.23000n    691.2702m     10.6697m  
    1.24000n    691.2646m     10.6620m  
    1.25000n    691.2590m     10.6543m  
    1.26000n    691.2534m     10.6466m  
    1.27000n    691.2477m     10.6389m  
    1.28000n    691.2421m     10.6312m  
    1.29000n    691.2391m     10.6272m  
    1.30000n    691.2420m     10.6311m  
    1.31000n    691.2449m     10.6351m  
    1.32000n    691.2478m     10.6391m  
    1.33000n    691.2506m     10.6431m  
    1.34000n    691.2535m     10.6471m  
    1.35000n    691.2564m     10.6510m  
    1.36000n    691.2593m     10.6550m  
    1.37000n    691.2621m     10.6590m  
    1.38000n    691.2650m     10.6630m  
    1.39000n    691.2679m     10.6669m  
    1.40000n    691.2708m     10.6709m  
    1.41000n    691.2736m     10.6749m  
    1.42000n    691.2765m     10.6789m  
    1.43000n    691.2794m     10.6828m  
    1.44000n    691.2822m     10.6868m  
    1.45000n    691.2851m     10.6908m  
    1.46000n    691.2880m     10.6948m  
    1.47000n    691.2909m     10.6988m  
    1.48000n    691.2937m     10.7027m  
    1.49000n    691.2948m     10.7042m  
    1.50000n    691.2920m     10.7003m  
    1.51000n    691.2891m     10.6963m  
    1.52000n    691.2863m     10.6923m  
    1.53000n    691.2834m     10.6883m  
    1.54000n    691.2806m     10.6844m  
    1.55000n    691.2777m     10.6804m  
    1.56000n    691.2749m     10.6764m  
    1.57000n    691.2720m     10.6724m  
    1.58000n    691.2692m     10.6684m  
    1.59000n    691.2663m     10.6645m  
    1.60000n    691.2635m     10.6605m  
    1.61000n    691.2606m     10.6565m  
    1.62000n    691.2577m     10.6525m  
    1.63000n    691.2549m     10.6486m  
    1.64000n    691.2520m     10.6446m  
    1.65000n    691.2492m     10.6406m  
    1.66000n    691.2463m     10.6366m  
    1.67000n    691.2435m     10.6326m  
    1.68000n    691.2406m     10.6287m  
    1.69000n    691.2395m     10.6271m  
    1.70000n    691.2424m     10.6311m  
    1.71000n    691.2452m     10.6351m  
    1.72000n    691.2480m     10.6391m  
    1.73000n    691.2509m     10.6431m  
    1.74000n    691.2537m     10.6470m  
    1.75000n    691.2565m     10.6510m  
    1.76000n    691.2594m     10.6550m  
    1.77000n    691.2622m     10.6590m  
    1.78000n    691.2650m     10.6630m  
    1.79000n    691.2679m     10.6669m  
    1.80000n    691.2707m     10.6709m  
    1.81000n    691.2735m     10.6749m  
    1.82000n    691.2764m     10.6789m  
    1.83000n    691.2792m     10.6829m  
    1.84000n    691.2820m     10.6868m  
    1.85000n    691.2849m     10.6908m  
    1.86000n    691.2877m     10.6948m  
    1.87000n    691.2905m     10.6988m  
    1.88000n    691.2934m     10.7028m  
    1.89000n    691.2938m     10.7033m  
    1.90000n    691.2888m     10.6963m  
    1.91000n    691.2839m     10.6893m  
    1.92000n    691.2789m     10.6822m  
    1.93000n    691.2739m     10.6752m  
    1.94000n    691.2690m     10.6681m  
    1.95000n    691.2640m     10.6611m  
    1.96000n    691.2590m     10.6541m  
    1.97000n    691.2541m     10.6470m  
    1.98000n    691.2491m     10.6400m  
    1.99000n    691.2442m     10.6329m  
    2.00000n    691.2392m     10.6259m  
    2.01000n    687.8793m     11.0645m  
    2.02000n    671.0705m     13.5327m  
    2.03000n    366.8071m    165.2959m  
    2.04000n     18.9312m    685.8957m  
    2.05000n     10.7823m    688.7584m  
    2.06000n     10.4798m    691.1249m  
    2.07000n     10.4243m    691.0767m  
    2.08000n     10.4755m    691.1125m  
    2.09000n     10.4753m    691.1119m  
    2.10000n     10.4753m    691.1119m  
    2.11000n     10.4753m    691.1119m  
    2.12000n     10.4753m    691.1119m  
    2.13000n     10.4753m    691.1119m  
    2.14000n     10.4753m    691.1119m  
    2.15000n     10.4753m    691.1119m  
    2.16000n     10.4753m    691.1119m  
    2.17000n     10.4753m    691.1119m  
    2.18000n     10.4753m    691.1119m  
    2.19000n     10.4753m    691.1119m  
    2.20000n     10.4753m    691.1119m  
    2.21000n     10.4753m    691.1119m  
    2.22000n     10.4753m    691.1119m  
    2.23000n     10.4753m    691.1119m  
    2.24000n     10.4753m    691.1119m  
    2.25000n     10.4753m    691.1119m  
    2.26000n     10.4753m    691.1119m  
    2.27000n     10.4753m    691.1119m  
    2.28000n     10.4753m    691.1119m  
    2.29000n     10.4753m    691.1119m  
    2.30000n     10.4753m    691.1119m  
    2.31000n     10.4753m    691.1119m  
    2.32000n     10.4753m    691.1119m  
    2.33000n     10.4753m    691.1119m  
    2.34000n     10.4753m    691.1119m  
    2.35000n     10.4753m    691.1119m  
    2.36000n     10.4753m    691.1119m  
    2.37000n     10.4753m    691.1119m  
    2.38000n     10.4753m    691.1119m  
    2.39000n     10.4753m    691.1119m  
    2.40000n     10.4753m    691.1119m  
    2.41000n     10.4753m    691.1119m  
    2.42000n     10.4753m    691.1119m  
    2.43000n     10.4753m    691.1119m  
    2.44000n     10.4753m    691.1119m  
    2.45000n     10.4753m    691.1119m  
    2.46000n     10.4753m    691.1119m  
    2.47000n     10.4753m    691.1119m  
    2.48000n     10.4753m    691.1119m  
    2.49000n     10.4753m    691.1119m  
    2.50000n     10.4753m    691.1119m  
    2.51000n     10.4753m    691.1119m  
    2.52000n     10.4753m    691.1119m  
    2.53000n     10.4753m    691.1119m  
    2.54000n     10.4753m    691.1119m  
    2.55000n     10.4753m    691.1119m  
    2.56000n     10.4753m    691.1119m  
    2.57000n     10.4753m    691.1119m  
    2.58000n     10.4753m    691.1119m  
    2.59000n     10.4753m    691.1119m  
    2.60000n     10.4753m    691.1119m  
    2.61000n     10.4753m    691.1119m  
    2.62000n     10.4753m    691.1119m  
    2.63000n     10.4753m    691.1119m  
    2.64000n     10.4753m    691.1119m  
    2.65000n     10.4753m    691.1119m  
    2.66000n     10.4753m    691.1119m  
    2.67000n     10.4753m    691.1119m  
    2.68000n     10.4753m    691.1119m  
    2.69000n     10.4753m    691.1119m  
    2.70000n     10.4753m    691.1119m  
    2.71000n     10.4753m    691.1119m  
    2.72000n     10.4753m    691.1119m  
    2.73000n     10.4753m    691.1119m  
    2.74000n     10.4753m    691.1119m  
    2.75000n     10.4753m    691.1119m  
    2.76000n     10.4753m    691.1119m  
    2.77000n     10.4753m    691.1119m  
    2.78000n     10.4753m    691.1119m  
    2.79000n     10.4753m    691.1119m  
    2.80000n     10.4753m    691.1119m  
    2.81000n     10.4753m    691.1119m  
    2.82000n     10.4753m    691.1119m  
    2.83000n     10.4753m    691.1119m  
    2.84000n     10.4753m    691.1119m  
    2.85000n     10.4753m    691.1119m  
    2.86000n     10.4753m    691.1119m  
    2.87000n     10.4753m    691.1119m  
    2.88000n     10.4753m    691.1119m  
    2.89000n     10.4753m    691.1119m  
    2.90000n     10.4753m    691.1119m  
    2.91000n     10.4753m    691.1119m  
    2.92000n     10.4753m    691.1119m  
    2.93000n     10.4753m    691.1119m  
    2.94000n     10.4753m    691.1119m  
    2.95000n     10.4753m    691.1119m  
    2.96000n     10.4753m    691.1119m  
    2.97000n     10.4753m    691.1119m  
    2.98000n     10.4753m    691.1119m  
    2.99000n     10.4753m    691.1119m  
    3.00000n     10.4753m    691.1119m  
    3.01000n     10.4753m    691.1119m  
    3.02000n     10.4753m    691.1119m  
    3.03000n     10.4753m    691.1119m  
    3.04000n     10.4753m    691.1119m  
    3.05000n     10.4753m    691.1119m  
    3.06000n     14.3411m    690.7262m  
    3.07000n     31.4098m    688.3680m  
    3.08000n    383.5785m    412.3065m  
    3.09000n    683.6050m     13.9117m  
    3.10000n    690.8367m     12.7623m  
    3.11000n    691.2490m     10.6484m  
    3.12000n    691.3022m     10.6968m  
    3.13000n    691.2657m     10.6625m  
    3.14000n    691.2343m     10.6330m  
    3.15000n    691.2473m     10.6463m  
    3.16000n    691.2604m     10.6595m  
    3.17000n    691.2734m     10.6728m  
    3.18000n    691.2864m     10.6860m  
    3.19000n    691.2995m     10.6993m  
    3.20000n    691.2945m     10.6941m  
    3.21000n    691.2886m     10.6879m  
    3.22000n    691.2827m     10.6817m  
    3.23000n    691.2768m     10.6756m  
    3.24000n    691.2709m     10.6694m  
    3.25000n    691.2650m     10.6633m  
    3.26000n    691.2591m     10.6571m  
    3.27000n    691.2532m     10.6509m  
    3.28000n    691.2474m     10.6448m  
    3.29000n    691.2415m     10.6386m  
    3.30000n    691.2356m     10.6325m  
    3.31000n    691.2372m     10.6342m  
    3.32000n    691.2405m     10.6377m  
    3.33000n    691.2437m     10.6411m  
    3.34000n    691.2469m     10.6445m  
    3.35000n    691.2502m     10.6480m  
    3.36000n    691.2534m     10.6514m  
    3.37000n    691.2567m     10.6548m  
    3.38000n    691.2599m     10.6583m  
    3.39000n    691.2632m     10.6617m  
    3.40000n    691.2664m     10.6651m  
    3.41000n    691.2696m     10.6686m  
    3.42000n    691.2729m     10.6720m  
    3.43000n    691.2761m     10.6754m  
    3.44000n    691.2794m     10.6789m  
    3.45000n    691.2826m     10.6823m  
    3.46000n    691.2858m     10.6857m  
    3.47000n    691.2891m     10.6892m  
    3.48000n    691.2923m     10.6926m  
    3.49000n    691.2956m     10.6960m  
    3.50000n    691.2988m     10.6995m  
    3.51000n    691.2967m     10.6972m  
    3.52000n    691.2935m     10.6938m  
    3.53000n    691.2903m     10.6903m  
    3.54000n    691.2871m     10.6869m  
    3.55000n    691.2838m     10.6835m  
    3.56000n    691.2806m     10.6800m  
    3.57000n    691.2774m     10.6766m  
    3.58000n    691.2742m     10.6732m  
    3.59000n    691.2710m     10.6697m  
    3.60000n    691.2678m     10.6663m  
    3.61000n    691.2646m     10.6628m  
    3.62000n    691.2613m     10.6594m  
    3.63000n    691.2581m     10.6560m  
    3.64000n    691.2549m     10.6525m  
    3.65000n    691.2517m     10.6491m  
    3.66000n    691.2485m     10.6457m  
    3.67000n    691.2453m     10.6422m  
    3.68000n    691.2421m     10.6388m  
    3.69000n    691.2388m     10.6353m  
    3.70000n    691.2356m     10.6319m  
    3.71000n    691.2377m     10.6342m  
    3.72000n    691.2409m     10.6376m  
    3.73000n    691.2441m     10.6410m  
    3.74000n    691.2473m     10.6445m  
    3.75000n    691.2505m     10.6479m  
    3.76000n    691.2537m     10.6514m  
    3.77000n    691.2568m     10.6548m  
    3.78000n    691.2600m     10.6583m  
    3.79000n    691.2632m     10.6617m  
    3.80000n    691.2664m     10.6651m  
    3.81000n    691.2696m     10.6686m  
    3.82000n    691.2728m     10.6720m  
    3.83000n    691.2760m     10.6755m  
    3.84000n    691.2792m     10.6789m  
    3.85000n    691.2824m     10.6824m  
    3.86000n    691.2855m     10.6858m  
    3.87000n    691.2887m     10.6892m  
    3.88000n    691.2919m     10.6927m  
    3.89000n    691.2951m     10.6961m  
    3.90000n    691.2983m     10.6996m  
    3.91000n    691.2935m     10.6944m  
    3.92000n    691.2871m     10.6873m  
    3.93000n    691.2807m     10.6803m  
    3.94000n    691.2743m     10.6733m  
    3.95000n    691.2679m     10.6663m  
    3.96000n    691.2615m     10.6593m  
    3.97000n    691.2551m     10.6522m  
    3.98000n    691.2487m     10.6452m  
    3.99000n    691.2422m     10.6382m  
    4.00000n    691.2358m     10.6312m  
y
x

        time    voltage      voltage    
                 outin_01     outin_11  
    0.            9.3910m    691.2671m  
   10.00000p     38.3890m    687.4539m  
   20.00000p    104.7320m    672.0414m  
   30.00000p    418.0351m    367.3294m  
   40.00000p    649.3824m     19.5306m  
   50.00000p    687.9945m     11.1123m  
   60.00000p    692.5244m     10.4769m  
   70.00000p    692.5341m     10.4487m  
   80.00000p    692.5264m     10.4682m  
   90.00000p    692.5132m     10.4988m  
  100.00000p    692.5128m     10.4992m  
  110.00000p    692.5172m     10.4882m  
  120.00000p    692.5216m     10.4771m  
  130.00000p    692.5260m     10.4661m  
  140.00000p    692.5304m     10.4551m  
  150.00000p    692.5346m     10.4447m  
  160.00000p    692.5326m     10.4498m  
  170.00000p    692.5306m     10.4549m  
  180.00000p    692.5287m     10.4600m  
  190.00000p    692.5267m     10.4651m  
  200.00000p    692.5247m     10.4701m  
  210.00000p    692.5228m     10.4752m  
  220.00000p    692.5208m     10.4803m  
  230.00000p    692.5188m     10.4854m  
  240.00000p    692.5168m     10.4905m  
  250.00000p    692.5149m     10.4956m  
  260.00000p    692.5129m     10.5007m  
  270.00000p    692.5111m     10.5054m  
  280.00000p    692.5122m     10.5024m  
  290.00000p    692.5134m     10.4994m  
  300.00000p    692.5145m     10.4963m  
  310.00000p    692.5157m     10.4933m  
  320.00000p    692.5168m     10.4903m  
  330.00000p    692.5180m     10.4873m  
  340.00000p    692.5191m     10.4843m  
  350.00000p    692.5203m     10.4813m  
  360.00000p    692.5214m     10.4783m  
  370.00000p    692.5225m     10.4753m  
  380.00000p    692.5237m     10.4723m  
  390.00000p    692.5248m     10.4692m  
  400.00000p    692.5260m     10.4662m  
  410.00000p    692.5271m     10.4632m  
  420.00000p    692.5283m     10.4602m  
  430.00000p    692.5294m     10.4572m  
  440.00000p    692.5306m     10.4542m  
  450.00000p    692.5317m     10.4512m  
  460.00000p    692.5328m     10.4482m  
  470.00000p    692.5339m     10.4455m  
  480.00000p    692.5328m     10.4485m  
  490.00000p    692.5316m     10.4514m  
  500.00000p    692.5305m     10.4544m  
  510.00000p    692.5294m     10.4574m  
  520.00000p    692.5283m     10.4604m  
  530.00000p    692.5272m     10.4634m  
  540.00000p    692.5260m     10.4663m  
  550.00000p    692.5249m     10.4693m  
  560.00000p    692.5238m     10.4723m  
  570.00000p    692.5227m     10.4753m  
  580.00000p    692.5216m     10.4783m  
  590.00000p    692.5205m     10.4812m  
  600.00000p    692.5193m     10.4842m  
  610.00000p    692.5182m     10.4872m  
  620.00000p    692.5171m     10.4902m  
  630.00000p    692.5160m     10.4932m  
  640.00000p    692.5149m     10.4962m  
  650.00000p    692.5137m     10.4991m  
  660.00000p    692.5126m     10.5021m  
  670.00000p    692.5116m     10.5048m  
  680.00000p    692.5127m     10.5018m  
  690.00000p    692.5138m     10.4989m  
  700.00000p    692.5149m     10.4959m  
  710.00000p    692.5160m     10.4930m  
  720.00000p    692.5171m     10.4900m  
  730.00000p    692.5182m     10.4871m  
  740.00000p    692.5193m     10.4841m  
  750.00000p    692.5204m     10.4812m  
  760.00000p    692.5215m     10.4782m  
  770.00000p    692.5225m     10.4753m  
  780.00000p    692.5236m     10.4723m  
  790.00000p    692.5247m     10.4694m  
  800.00000p    692.5258m     10.4664m  
  810.00000p    692.5269m     10.4635m  
  820.00000p    692.5280m     10.4605m  
  830.00000p    692.5291m     10.4576m  
  840.00000p    692.5302m     10.4546m  
  850.00000p    692.5313m     10.4516m  
  860.00000p    692.5324m     10.4487m  
  870.00000p    692.5334m     10.4461m  
  880.00000p    692.5322m     10.4493m  
  890.00000p    692.5310m     10.4525m  
  900.00000p    692.5298m     10.4558m  
  910.00000p    692.5286m     10.4590m  
  920.00000p    692.5275m     10.4623m  
  930.00000p    692.5263m     10.4655m  
  940.00000p    692.5251m     10.4687m  
  950.00000p    692.5239m     10.4720m  
  960.00000p    692.5227m     10.4752m  
  970.00000p    692.5215m     10.4784m  
  980.00000p    692.5204m     10.4817m  
  990.00000p    692.5192m     10.4849m  
    1.00000n    692.5180m     10.4881m  
    1.01000n    692.5168m     10.4914m  
    1.02000n    692.5156m     10.4946m  
    1.03000n    692.5145m     10.4979m  
    1.04000n    692.5133m     10.5011m  
    1.05000n    692.5121m     10.5043m  
    1.06000n    692.5227m     10.4751m  
    1.07000n    692.5226m     10.4753m  
    1.08000n    692.5226m     10.4752m  
    1.09000n    692.5226m     10.4753m  
    1.10000n    692.5226m     10.4753m  
    1.11000n    692.5226m     10.4753m  
    1.12000n    692.5226m     10.4753m  
    1.13000n    692.5226m     10.4753m  
    1.14000n    692.5226m     10.4753m  
    1.15000n    692.5226m     10.4753m  
    1.16000n    692.5226m     10.4753m  
    1.17000n    692.5226m     10.4753m  
    1.18000n    692.5226m     10.4753m  
    1.19000n    692.5226m     10.4753m  
    1.20000n    692.5226m     10.4753m  
    1.21000n    692.5226m     10.4753m  
    1.22000n    692.5226m     10.4753m  
    1.23000n    692.5226m     10.4753m  
    1.24000n    692.5226m     10.4753m  
    1.25000n    692.5226m     10.4753m  
    1.26000n    692.5226m     10.4753m  
    1.27000n    692.5226m     10.4753m  
    1.28000n    692.5226m     10.4753m  
    1.29000n    692.5226m     10.4753m  
    1.30000n    692.5226m     10.4753m  
    1.31000n    692.5226m     10.4753m  
    1.32000n    692.5226m     10.4753m  
    1.33000n    692.5226m     10.4753m  
    1.34000n    692.5226m     10.4753m  
    1.35000n    692.5226m     10.4753m  
    1.36000n    692.5226m     10.4753m  
    1.37000n    692.5226m     10.4753m  
    1.38000n    692.5226m     10.4753m  
    1.39000n    692.5226m     10.4753m  
    1.40000n    692.5226m     10.4753m  
    1.41000n    692.5226m     10.4753m  
    1.42000n    692.5226m     10.4753m  
    1.43000n    692.5226m     10.4753m  
    1.44000n    692.5226m     10.4753m  
    1.45000n    692.5226m     10.4753m  
    1.46000n    692.5226m     10.4753m  
    1.47000n    692.5226m     10.4753m  
    1.48000n    692.5226m     10.4753m  
    1.49000n    692.5226m     10.4753m  
    1.50000n    692.5226m     10.4753m  
    1.51000n    692.5226m     10.4753m  
    1.52000n    692.5226m     10.4753m  
    1.53000n    692.5226m     10.4753m  
    1.54000n    692.5226m     10.4753m  
    1.55000n    692.5226m     10.4753m  
    1.56000n    692.5226m     10.4753m  
    1.57000n    692.5226m     10.4753m  
    1.58000n    692.5226m     10.4753m  
    1.59000n    692.5226m     10.4753m  
    1.60000n    692.5226m     10.4753m  
    1.61000n    692.5226m     10.4753m  
    1.62000n    692.5226m     10.4753m  
    1.63000n    692.5226m     10.4753m  
    1.64000n    692.5226m     10.4753m  
    1.65000n    692.5226m     10.4753m  
    1.66000n    692.5226m     10.4753m  
    1.67000n    692.5226m     10.4753m  
    1.68000n    692.5226m     10.4753m  
    1.69000n    692.5226m     10.4753m  
    1.70000n    692.5226m     10.4753m  
    1.71000n    692.5226m     10.4753m  
    1.72000n    692.5226m     10.4753m  
    1.73000n    692.5226m     10.4753m  
    1.74000n    692.5226m     10.4753m  
    1.75000n    692.5226m     10.4753m  
    1.76000n    692.5226m     10.4753m  
    1.77000n    692.5226m     10.4753m  
    1.78000n    692.5226m     10.4753m  
    1.79000n    692.5226m     10.4753m  
    1.80000n    692.5226m     10.4753m  
    1.81000n    692.5226m     10.4753m  
    1.82000n    692.5226m     10.4753m  
    1.83000n    692.5226m     10.4753m  
    1.84000n    692.5226m     10.4753m  
    1.85000n    692.5226m     10.4753m  
    1.86000n    692.5226m     10.4753m  
    1.87000n    692.5226m     10.4753m  
    1.88000n    692.5226m     10.4753m  
    1.89000n    692.5226m     10.4753m  
    1.90000n    692.5226m     10.4753m  
    1.91000n    692.5226m     10.4753m  
    1.92000n    692.5226m     10.4753m  
    1.93000n    692.5226m     10.4753m  
    1.94000n    692.5226m     10.4753m  
    1.95000n    692.5226m     10.4753m  
    1.96000n    692.5226m     10.4753m  
    1.97000n    692.5226m     10.4753m  
    1.98000n    692.5226m     10.4753m  
    1.99000n    692.5226m     10.4753m  
    2.00000n    692.5226m     10.4753m  
    2.01000n    692.5226m     10.4753m  
    2.02000n    692.5226m     10.4753m  
    2.03000n    692.5226m     10.4753m  
    2.04000n    692.5226m     10.4753m  
    2.05000n    692.5226m     10.4753m  
    2.06000n    660.7000m     14.8538m  
    2.07000n    579.3967m     32.7453m  
    2.08000n    232.8771m    400.0822m  
    2.09000n   -787.9225m      3.2245   
    2.10000n     -1.7788       1.5724   
    2.11000n      9.3638m    691.3199m  
    2.12000n      9.3942m    691.2675m  
    2.13000n      9.3929m    691.2673m  
    2.14000n      9.3865m    691.2666m  
    2.15000n      9.3857m    691.2665m  
    2.16000n      9.3881m    691.2668m  
    2.17000n      9.3905m    691.2670m  
    2.18000n      9.3929m    691.2673m  
    2.19000n      9.3953m    691.2676m  
    2.20000n      9.3977m    691.2679m  
    2.21000n      9.3970m    691.2678m  
    2.22000n      9.3960m    691.2677m  
    2.23000n      9.3951m    691.2676m  
    2.24000n      9.3942m    691.2675m  
    2.25000n      9.3932m    691.2673m  
    2.26000n      9.3923m    691.2672m  
    2.27000n      9.3914m    691.2671m  
    2.28000n      9.3904m    691.2670m  
    2.29000n      9.3895m    691.2669m  
    2.30000n      9.3885m    691.2668m  
    2.31000n      9.3876m    691.2667m  
    2.32000n      9.3867m    691.2666m  
    2.33000n      9.3857m    691.2665m  
    2.34000n      9.3848m    691.2664m  
    2.35000n      9.3846m    691.2663m  
    2.36000n      9.3852m    691.2664m  
    2.37000n      9.3859m    691.2665m  
    2.38000n      9.3866m    691.2666m  
    2.39000n      9.3873m    691.2666m  
    2.40000n      9.3879m    691.2667m  
    2.41000n      9.3886m    691.2668m  
    2.42000n      9.3893m    691.2669m  
    2.43000n      9.3900m    691.2670m  
    2.44000n      9.3906m    691.2670m  
    2.45000n      9.3913m    691.2671m  
    2.46000n      9.3920m    691.2672m  
    2.47000n      9.3927m    691.2673m  
    2.48000n      9.3934m    691.2674m  
    2.49000n      9.3940m    691.2674m  
    2.50000n      9.3947m    691.2675m  
    2.51000n      9.3954m    691.2676m  
    2.52000n      9.3961m    691.2677m  
    2.53000n      9.3967m    691.2677m  
    2.54000n      9.3974m    691.2678m  
    2.55000n      9.3975m    691.2678m  
    2.56000n      9.3968m    691.2678m  
    2.57000n      9.3962m    691.2677m  
    2.58000n      9.3955m    691.2676m  
    2.59000n      9.3948m    691.2675m  
    2.60000n      9.3941m    691.2674m  
    2.61000n      9.3935m    691.2674m  
    2.62000n      9.3928m    691.2673m  
    2.63000n      9.3921m    691.2672m  
    2.64000n      9.3914m    691.2671m  
    2.65000n      9.3908m    691.2670m  
    2.66000n      9.3901m    691.2670m  
    2.67000n      9.3894m    691.2669m  
    2.68000n      9.3887m    691.2668m  
    2.69000n      9.3881m    691.2667m  
    2.70000n      9.3874m    691.2667m  
    2.71000n      9.3867m    691.2666m  
    2.72000n      9.3860m    691.2665m  
    2.73000n      9.3854m    691.2664m  
    2.74000n      9.3847m    691.2663m  
    2.75000n      9.3846m    691.2663m  
    2.76000n      9.3853m    691.2664m  
    2.77000n      9.3859m    691.2665m  
    2.78000n      9.3866m    691.2666m  
    2.79000n      9.3873m    691.2666m  
    2.80000n      9.3880m    691.2667m  
    2.81000n      9.3886m    691.2668m  
    2.82000n      9.3893m    691.2669m  
    2.83000n      9.3900m    691.2670m  
    2.84000n      9.3906m    691.2670m  
    2.85000n      9.3913m    691.2671m  
    2.86000n      9.3920m    691.2672m  
    2.87000n      9.3927m    691.2673m  
    2.88000n      9.3933m    691.2674m  
    2.89000n      9.3940m    691.2674m  
    2.90000n      9.3947m    691.2675m  
    2.91000n      9.3954m    691.2676m  
    2.92000n      9.3960m    691.2677m  
    2.93000n      9.3967m    691.2677m  
    2.94000n      9.3974m    691.2678m  
    2.95000n      9.3972m    691.2678m  
    2.96000n      9.3959m    691.2677m  
    2.97000n      9.3947m    691.2675m  
    2.98000n      9.3934m    691.2674m  
    2.99000n      9.3921m    691.2672m  
    3.00000n      9.3908m    691.2671m  
    3.01000n      9.3895m    691.2669m  
    3.02000n      9.3882m    691.2668m  
    3.03000n      9.3869m    691.2666m  
    3.04000n      9.3856m    691.2665m  
    3.05000n      9.3843m    691.2663m  
    3.06000n      9.3911m    691.2671m  
    3.07000n      9.3910m    691.2671m  
    3.08000n      9.3910m    691.2671m  
    3.09000n      9.3910m    691.2671m  
    3.10000n      9.3910m    691.2671m  
    3.11000n      9.3910m    691.2671m  
    3.12000n      9.3910m    691.2671m  
    3.13000n      9.3910m    691.2671m  
    3.14000n      9.3910m    691.2671m  
    3.15000n      9.3910m    691.2671m  
    3.16000n      9.3910m    691.2671m  
    3.17000n      9.3910m    691.2671m  
    3.18000n      9.3910m    691.2671m  
    3.19000n      9.3910m    691.2671m  
    3.20000n      9.3910m    691.2671m  
    3.21000n      9.3910m    691.2671m  
    3.22000n      9.3910m    691.2671m  
    3.23000n      9.3910m    691.2671m  
    3.24000n      9.3910m    691.2671m  
    3.25000n      9.3910m    691.2671m  
    3.26000n      9.3910m    691.2671m  
    3.27000n      9.3910m    691.2671m  
[...]
    3.81000n      9.3910m    691.2671m  
    3.82000n      9.3910m    691.2671m  
    3.83000n      9.3910m    691.2671m  
    3.84000n      9.3910m    691.2671m  
    3.85000n      9.3910m    691.2671m  
    3.86000n      9.3910m    691.2671m  
    3.87000n      9.3910m    691.2671m  
    3.88000n      9.3910m    691.2671m  
    3.89000n      9.3910m    691.2671m  
    3.90000n      9.3910m    691.2671m  
    3.91000n      9.3910m    691.2671m  
    3.92000n      9.3910m    691.2671m  
    3.93000n      9.3910m    691.2671m  
    3.94000n      9.3910m    691.2671m  
    3.95000n      9.3910m    691.2671m  
    3.96000n      9.3910m    691.2671m  
    3.97000n      9.3910m    691.2671m  
    3.98000n      9.3910m    691.2671m  
    3.99000n      9.3910m    691.2671m  
    4.00000n      9.3910m    691.2671m  
y
x

        time    voltage      voltage    
                 outin_11     outin_21  
    0.          691.2671m     10.6657m  
   10.00000p    687.4539m     11.1192m  
   20.00000p    672.0414m     13.3261m  
   30.00000p    367.3294m    254.3047m  
   40.00000p     19.5306m    686.9508m  
   50.00000p     11.1123m    689.3351m  
   60.00000p     10.4769m    691.1203m  
   70.00000p     10.4487m    691.0909m  
   80.00000p     10.4682m    691.1080m  
   90.00000p     10.4988m    691.1321m  
  100.00000p     10.4992m    691.1318m  
  110.00000p     10.4882m    691.1223m  
  120.00000p     10.4771m    691.1128m  
  130.00000p     10.4661m    691.1033m  
  140.00000p     10.4551m    691.0938m  
  150.00000p     10.4447m    691.0848m  
  160.00000p     10.4498m    691.0894m  
  170.00000p     10.4549m    691.0939m  
  180.00000p     10.4600m    691.0985m  
  190.00000p     10.4651m    691.1030m  
  200.00000p     10.4701m    691.1076m  
  210.00000p     10.4752m    691.1121m  
  220.00000p     10.4803m    691.1167m  
  230.00000p     10.4854m    691.1212m  
  240.00000p     10.4905m    691.1258m  
  250.00000p     10.4956m    691.1303m  
  260.00000p     10.5007m    691.1349m  
  270.00000p     10.5054m    691.1391m  
  280.00000p     10.5024m    691.1363m  
  290.00000p     10.4994m    691.1336m  
  300.00000p     10.4963m    691.1308m  
  310.00000p     10.4933m    691.1281m  
  320.00000p     10.4903m    691.1254m  
  330.00000p     10.4873m    691.1226m  
  340.00000p     10.4843m    691.1199m  
  350.00000p     10.4813m    691.1171m  
  360.00000p     10.4783m    691.1144m  
  370.00000p     10.4753m    691.1117m  
  380.00000p     10.4723m    691.1089m  
  390.00000p     10.4692m    691.1062m  
  400.00000p     10.4662m    691.1035m  
  410.00000p     10.4632m    691.1007m  
  420.00000p     10.4602m    691.0980m  
  430.00000p     10.4572m    691.0952m  
  440.00000p     10.4542m    691.0925m  
  450.00000p     10.4512m    691.0898m  
  460.00000p     10.4482m    691.0870m  
  470.00000p     10.4455m    691.0846m  
  480.00000p     10.4485m    691.0873m  
  490.00000p     10.4514m    691.0901m  
  500.00000p     10.4544m    691.0928m  
  510.00000p     10.4574m    691.0956m  
  520.00000p     10.4604m    691.0983m  
  530.00000p     10.4634m    691.1011m  
  540.00000p     10.4663m    691.1038m  
  550.00000p     10.4693m    691.1065m  
  560.00000p     10.4723m    691.1093m  
  570.00000p     10.4753m    691.1120m  
  580.00000p     10.4783m    691.1148m  
  590.00000p     10.4812m    691.1175m  
  600.00000p     10.4842m    691.1203m  
  610.00000p     10.4872m    691.1230m  
  620.00000p     10.4902m    691.1258m  
  630.00000p     10.4932m    691.1285m  
  640.00000p     10.4962m    691.1313m  
  650.00000p     10.4991m    691.1340m  
  660.00000p     10.5021m    691.1368m  
  670.00000p     10.5048m    691.1392m  
  680.00000p     10.5018m    691.1365m  
  690.00000p     10.4989m    691.1337m  
  700.00000p     10.4959m    691.1309m  
  710.00000p     10.4930m    691.1282m  
  720.00000p     10.4900m    691.1254m  
  730.00000p     10.4871m    691.1227m  
  740.00000p     10.4841m    691.1199m  
  750.00000p     10.4812m    691.1172m  
  760.00000p     10.4782m    691.1144m  
  770.00000p     10.4753m    691.1117m  
  780.00000p     10.4723m    691.1089m  
  790.00000p     10.4694m    691.1062m  
  800.00000p     10.4664m    691.1034m  
  810.00000p     10.4635m    691.1007m  
  820.00000p     10.4605m    691.0979m  
  830.00000p     10.4576m    691.0951m  
  840.00000p     10.4546m    691.0924m  
  850.00000p     10.4516m    691.0896m  
  860.00000p     10.4487m    691.0869m  
  870.00000p     10.4461m    691.0844m  
  880.00000p     10.4493m    691.0875m  
  890.00000p     10.4525m    691.0906m  
  900.00000p     10.4558m    691.0936m  
  910.00000p     10.4590m    691.0967m  
  920.00000p     10.4623m    691.0997m  
  930.00000p     10.4655m    691.1028m  
  940.00000p     10.4687m    691.1059m  
  950.00000p     10.4720m    691.1089m  
  960.00000p     10.4752m    691.1120m  
  970.00000p     10.4784m    691.1150m  
  980.00000p     10.4817m    691.1181m  
  990.00000p     10.4849m    691.1212m  
    1.00000n     10.4881m    691.1242m  
    1.01000n     10.4914m    691.1273m  
    1.02000n     10.4946m    691.1303m  
    1.03000n     10.4979m    691.1334m  
    1.04000n     10.5011m    691.1365m  
    1.05000n     10.5043m    691.1395m  
    1.06000n     10.4751m    691.1117m  
    1.07000n     10.4753m    691.1118m  
    1.08000n     10.4752m    691.1119m  
    1.09000n     10.4753m    691.1119m  
    1.10000n     10.4753m    691.1119m  
    1.11000n     10.4753m    691.1119m  
    1.12000n     10.4753m    691.1119m  
    1.13000n     10.4753m    691.1119m  
    1.14000n     10.4753m    691.1119m  
    1.15000n     10.4753m    691.1119m  
    1.16000n     10.4753m    691.1119m  
    1.17000n     10.4753m    691.1119m  
    1.18000n     10.4753m    691.1119m  
    1.19000n     10.4753m    691.1119m  
    1.20000n     10.4753m    691.1119m  
    1.21000n     10.4753m    691.1119m  
    1.22000n     10.4753m    691.1119m  
    1.23000n     10.4753m    691.1119m  
    1.24000n     10.4753m    691.1119m  
    1.25000n     10.4753m    691.1119m  
    1.26000n     10.4753m    691.1119m  
    1.27000n     10.4753m    691.1119m  
    1.28000n     10.4753m    691.1119m  
    1.29000n     10.4753m    691.1119m  
    1.30000n     10.4753m    691.1119m  
    1.31000n     10.4753m    691.1119m  
    1.32000n     10.4753m    691.1119m  
    1.33000n     10.4753m    691.1119m  
    1.34000n     10.4753m    691.1119m  
    1.35000n     10.4753m    691.1119m  
    1.36000n     10.4753m    691.1119m  
    1.37000n     10.4753m    691.1119m  
    1.38000n     10.4753m    691.1119m  
    1.39000n     10.4753m    691.1119m  
    1.40000n     10.4753m    691.1119m  
    1.41000n     10.4753m    691.1119m  
    1.42000n     10.4753m    691.1119m  
    1.43000n     10.4753m    691.1119m  
    1.44000n     10.4753m    691.1119m  
    1.45000n     10.4753m    691.1119m  
    1.46000n     10.4753m    691.1119m  
    1.47000n     10.4753m    691.1119m  
    1.48000n     10.4753m    691.1119m  
    1.49000n     10.4753m    691.1119m  
    1.50000n     10.4753m    691.1119m  
    1.51000n     10.4753m    691.1119m  
    1.52000n     10.4753m    691.1119m  
    1.53000n     10.4753m    691.1119m  
    1.54000n     10.4753m    691.1119m  
    1.55000n     10.4753m    691.1119m  
    1.56000n     10.4753m    691.1119m  
    1.57000n     10.4753m    691.1119m  
    1.58000n     10.4753m    691.1119m  
    1.59000n     10.4753m    691.1119m  
    1.60000n     10.4753m    691.1119m  
    1.61000n     10.4753m    691.1119m  
    1.62000n     10.4753m    691.1119m  
    1.63000n     10.4753m    691.1119m  
    1.64000n     10.4753m    691.1119m  
    1.65000n     10.4753m    691.1119m  
    1.66000n     10.4753m    691.1119m  
    1.67000n     10.4753m    691.1119m  
    1.68000n     10.4753m    691.1119m  
    1.69000n     10.4753m    691.1119m  
    1.70000n     10.4753m    691.1119m  
    1.71000n     10.4753m    691.1119m  
    1.72000n     10.4753m    691.1119m  
    1.73000n     10.4753m    691.1119m  
    1.74000n     10.4753m    691.1119m  
    1.75000n     10.4753m    691.1119m  
    1.76000n     10.4753m    691.1119m  
    1.77000n     10.4753m    691.1119m  
    1.78000n     10.4753m    691.1119m  
    1.79000n     10.4753m    691.1119m  
    1.80000n     10.4753m    691.1119m  
    1.81000n     10.4753m    691.1119m  
    1.82000n     10.4753m    691.1119m  
    1.83000n     10.4753m    691.1119m  
    1.84000n     10.4753m    691.1119m  
    1.85000n     10.4753m    691.1119m  
    1.86000n     10.4753m    691.1119m  
    1.87000n     10.4753m    691.1119m  
    1.88000n     10.4753m    691.1119m  
    1.89000n     10.4753m    691.1119m  
    1.90000n     10.4753m    691.1119m  
    1.91000n     10.4753m    691.1119m  
    1.92000n     10.4753m    691.1119m  
    1.93000n     10.4753m    691.1119m  
    1.94000n     10.4753m    691.1119m  
    1.95000n     10.4753m    691.1119m  
    1.96000n     10.4753m    691.1119m  
    1.97000n     10.4753m    691.1119m  
    1.98000n     10.4753m    691.1119m  
    1.99000n     10.4753m    691.1119m  
    2.00000n     10.4753m    691.1119m  
    2.01000n     10.4753m    691.1119m  
    2.02000n     10.4753m    691.1119m  
    2.03000n     10.4753m    691.1119m  
    2.04000n     10.4753m    691.1119m  
    2.05000n     10.4753m    691.1119m  
    2.06000n     14.8538m    690.6797m  
    2.07000n     32.7453m    688.1368m  
    2.08000n    400.0822m    363.6523m  
    2.09000n      3.2245      13.4746m  
    2.10000n      1.5724     -45.8350m  
    2.11000n    691.3199m     10.6406m  
    2.12000n    691.2675m     10.6648m  
    2.13000n    691.2673m     10.6652m  
    2.14000n    691.2666m     10.6669m  
    2.15000n    691.2665m     10.6671m  
    2.16000n    691.2668m     10.6665m  
    2.17000n    691.2670m     10.6658m  
    2.18000n    691.2673m     10.6652m  
    2.19000n    691.2676m     10.6645m  
    2.20000n    691.2679m     10.6639m  
    2.21000n    691.2678m     10.6641m  
    2.22000n    691.2677m     10.6643m  
    2.23000n    691.2676m     10.6646m  
    2.24000n    691.2675m     10.6648m  
    2.25000n    691.2673m     10.6651m  
    2.26000n    691.2672m     10.6653m  
    2.27000n    691.2671m     10.6656m  
    2.28000n    691.2670m     10.6658m  
    2.29000n    691.2669m     10.6661m  
    2.30000n    691.2668m     10.6663m  
    2.31000n    691.2667m     10.6666m  
    2.32000n    691.2666m     10.6668m  
    2.33000n    691.2665m     10.6671m  
    2.34000n    691.2664m     10.6673m  
    2.35000n    691.2663m     10.6674m  
    2.36000n    691.2664m     10.6672m  
    2.37000n    691.2665m     10.6670m  
    2.38000n    691.2666m     10.6669m  
    2.39000n    691.2666m     10.6667m  
    2.40000n    691.2667m     10.6665m  
    2.41000n    691.2668m     10.6663m  
    2.42000n    691.2669m     10.6661m  
    2.43000n    691.2670m     10.6659m  
    2.44000n    691.2670m     10.6658m  
    2.45000n    691.2671m     10.6656m  
    2.46000n    691.2672m     10.6654m  
    2.47000n    691.2673m     10.6652m  
    2.48000n    691.2674m     10.6650m  
    2.49000n    691.2674m     10.6648m  
    2.50000n    691.2675m     10.6647m  
    2.51000n    691.2676m     10.6645m  
    2.52000n    691.2677m     10.6643m  
    2.53000n    691.2677m     10.6641m  
    2.54000n    691.2678m     10.6639m  
    2.55000n    691.2678m     10.6639m  
    2.56000n    691.2678m     10.6641m  
    2.57000n    691.2677m     10.6643m  
    2.58000n    691.2676m     10.6644m  
    2.59000n    691.2675m     10.6646m  
    2.60000n    691.2674m     10.6648m  
    2.61000n    691.2674m     10.6650m  
    2.62000n    691.2673m     10.6652m  
    2.63000n    691.2672m     10.6654m  
    2.64000n    691.2671m     10.6655m  
    2.65000n    691.2670m     10.6657m  
    2.66000n    691.2670m     10.6659m  
    2.67000n    691.2669m     10.6661m  
    2.68000n    691.2668m     10.6663m  
    2.69000n    691.2667m     10.6664m  
    2.70000n    691.2667m     10.6666m  
    2.71000n    691.2666m     10.6668m  
    2.72000n    691.2665m     10.6670m  
    2.73000n    691.2664m     10.6672m  
    2.74000n    691.2663m     10.6674m  
    2.75000n    691.2663m     10.6674m  
    2.76000n    691.2664m     10.6672m  
    2.77000n    691.2665m     10.6670m  
    2.78000n    691.2666m     10.6668m  
    2.79000n    691.2666m     10.6667m  
    2.80000n    691.2667m     10.6665m  
    2.81000n    691.2668m     10.6663m  
    2.82000n    691.2669m     10.6661m  
    2.83000n    691.2670m     10.6659m  
    2.84000n    691.2670m     10.6658m  
    2.85000n    691.2671m     10.6656m  
    2.86000n    691.2672m     10.6654m  
    2.87000n    691.2673m     10.6652m  
    2.88000n    691.2674m     10.6650m  
    2.89000n    691.2674m     10.6648m  
    2.90000n    691.2675m     10.6647m  
    2.91000n    691.2676m     10.6645m  
    2.92000n    691.2677m     10.6643m  
    2.93000n    691.2677m     10.6641m  
    2.94000n    691.2678m     10.6639m  
    2.95000n    691.2678m     10.6640m  
    2.96000n    691.2677m     10.6643m  
    2.97000n    691.2675m     10.6647m  
    2.98000n    691.2674m     10.6650m  
    2.99000n    691.2672m     10.6654m  
    3.00000n    691.2671m     10.6657m  
    3.01000n    691.2669m     10.6661m  
    3.02000n    691.2668m     10.6664m  
    3.03000n    691.2666m     10.6667m  
    3.04000n    691.2665m     10.6671m  
    3.05000n    691.2663m     10.6674m  
    3.06000n    691.2671m     10.6657m  
    3.07000n    691.2671m     10.6657m  
    3.08000n    691.2671m     10.6657m  
    3.09000n    691.2671m     10.6657m  
    3.10000n    691.2671m     10.6657m  
    3.11000n    691.2671m     10.6657m  
    3.12000n    691.2671m     10.6657m  
    3.13000n    691.2671m     10.6657m  
    3.14000n    691.2671m     10.6657m  
    3.15000n    691.2671m     10.6657m  
    3.16000n    691.2671m     10.6657m  
    3.17000n    691.2671m     10.6657m  
    3.18000n    691.2671m     10.6657m  
    3.19000n    691.2671m     10.6657m  
    3.20000n    691.2671m     10.6657m  
    3.21000n    691.2671m     10.6657m  
    3.22000n    691.2671m     10.6657m  
    3.23000n    691.2671m     10.6657m  
    3.24000n    691.2671m     10.6657m  
    3.25000n    691.2671m     10.6657m  
    3.26000n    691.2671m     10.6657m  
    3.27000n    691.2671m     10.6657m  
    3.28000n    691.2671m     10.6657m  
    3.29000n    691.2671m     10.6657m  
    3.30000n    691.2671m     10.6657m  
    3.31000n    691.2671m     10.6657m  
    3.32000n    691.2671m     10.6657m  
    3.33000n    691.2671m     10.6657m  
    3.34000n    691.2671m     10.6657m  
    3.35000n    691.2671m     10.6657m  
    3.36000n    691.2671m     10.6657m  
    3.37000n    691.2671m     10.6657m  
    3.38000n    691.2671m     10.6657m  
    3.39000n    691.2671m     10.6657m  
    3.40000n    691.2671m     10.6657m  
    3.41000n    691.2671m     10.6657m  
    3.42000n    691.2671m     10.6657m  
    3.43000n    691.2671m     10.6657m  
    3.44000n    691.2671m     10.6657m  
    3.45000n    691.2671m     10.6657m  
    3.46000n    691.2671m     10.6657m  
    3.47000n    691.2671m     10.6657m  
    3.48000n    691.2671m     10.6657m  
    3.49000n    691.2671m     10.6657m  
    3.50000n    691.2671m     10.6657m  
    3.51000n    691.2671m     10.6657m  
    3.52000n    691.2671m     10.6657m  
    3.53000n    691.2671m     10.6657m  
    3.54000n    691.2671m     10.6657m  
    3.55000n    691.2671m     10.6657m  
    3.56000n    691.2671m     10.6657m  
    3.57000n    691.2671m     10.6657m  
    3.58000n    691.2671m     10.6657m  
    3.59000n    691.2671m     10.6657m  
    3.60000n    691.2671m     10.6657m  
    3.61000n    691.2671m     10.6657m  
    3.62000n    691.2671m     10.6657m  
    3.63000n    691.2671m     10.6657m  
    3.64000n    691.2671m     10.6657m  
    3.65000n    691.2671m     10.6657m  
    3.66000n    691.2671m     10.6657m  
    3.67000n    691.2671m     10.6657m  
    3.68000n    691.2671m     10.6657m  
    3.69000n    691.2671m     10.6657m  
    3.70000n    691.2671m     10.6657m  
    3.71000n    691.2671m     10.6657m  
    3.72000n    691.2671m     10.6657m  
    3.73000n    691.2671m     10.6657m  
    3.74000n    691.2671m     10.6657m  
    3.75000n    691.2671m     10.6657m  
    3.76000n    691.2671m     10.6657m  
    3.77000n    691.2671m     10.6657m  
    3.78000n    691.2671m     10.6657m  
    3.79000n    691.2671m     10.6657m  
    3.80000n    691.2671m     10.6657m  
    3.81000n    691.2671m     10.6657m  
    3.82000n    691.2671m     10.6657m  
    3.83000n    691.2671m     10.6657m  
    3.84000n    691.2671m     10.6657m  
    3.85000n    691.2671m     10.6657m  
    3.86000n    691.2671m     10.6657m  
    3.87000n    691.2671m     10.6657m  
    3.88000n    691.2671m     10.6657m  
    3.89000n    691.2671m     10.6657m  
    3.90000n    691.2671m     10.6657m  
    3.91000n    691.2671m     10.6657m  
    3.92000n    691.2671m     10.6657m  
    3.93000n    691.2671m     10.6657m  
    3.94000n    691.2671m     10.6657m  
    3.95000n    691.2671m     10.6657m  
    3.96000n    691.2671m     10.6657m  
    3.97000n    691.2671m     10.6657m  
    3.98000n    691.2671m     10.6657m  
    3.99000n    691.2671m     10.6657m  
    4.00000n    691.2671m     10.6657m  
y
 inv_avg_power00=   1.6336u  from=   0.          to=   4.0000n
 peakpower00=  15.9166u    at=   3.0774n
             from=   0.         to=   4.0000n
 inv_avg_power10=   1.5584u  from=   0.          to=   4.0000n
 peakpower10=  15.2464u    at=   2.0285n
             from=   0.         to=   4.0000n
 inv_avg_power01=   5.2743u  from=   0.          to=   4.0000n
 peakpower01=   1.4267m    at=   2.0880n
             from=   0.         to=   4.0000n
 inv_avg_power11=   1.5096u  from=   0.          to=   4.0000n
 peakpower11=  15.0153u    at=   2.0785n
             from=   0.         to=   4.0000n
 source_power=  18.0261u  from=   0.          to=   4.0000n

          ***** job concluded
1****** HSPICE -- F-2011.09-SP2 64-BIT (Feb 27 2012) linux ******               
 ******  
 $this uut was automatically generated by:

  ******  job statistics summary tnom=  25.000 temp=  25.000 *****
  
  
 ******  Machine Information  ******
 CPU:
 model name	: Intel(R) Xeon(R) CPU E5-2650 v4 @ 2.20GHz
 cpu MHz	: 2146.031
  
 OS:
 Linux version 3.10.0-693.17.1.el7.x86_64 (mockbuild@x86-041.build.eng.bos.redha
 t.com) (gcc version 4.8.5 20150623 (Red Hat 4.8.5-16) (GCC) ) #1 SMP Sun Jan 14
  10:36:03 EST 2018


  ******  HSPICE Threads Information  ******

  Command Line Threads Count :     1
  Available CPU Count        :    24
  Actual Threads Count       :     1


  ******  Circuit Statistics  ******
  # nodes       =      46 # elements   =      19
  # resistors   =       0 # capacitors =       0 # inductors   =       0
  # mutual_inds =       0 # vccs       =       0 # vcvs        =       0
  # cccs        =       0 # ccvs       =       0 # volt_srcs   =       3
  # curr_srcs   =       0 # diodes     =       0 # bjts        =       0
  # jfets       =       0 # mosfets    =      16 # U elements  =       0
  # T elements  =       0 # W elements =       0 # B elements  =       0
  # S elements  =       0 # P elements =       0 # va device   =       0
  # vector_srcs =       0


  ******  Runtime Statistics (seconds)  ******

  analysis           time    # points   tot. iter  conv.iter
  op point           0.02           1         112
  transient          0.05         401         749         147 rev=        11
  readin             0.01
  errchk             0.00
  setup              0.00
  output             0.00


           peak memory used        135.46 megabytes
           total cpu time            0.08 seconds
           total elapsed time        0.34 seconds
           job started at     12:00:53 09/12/2020
           job ended   at     12:00:53 09/12/2020


 lic: Release hspice token(s) 
