$DATA1 SOURCE='HSPICE' VERSION='F-2011.09-SP2 64-BIT'
.TITLE '$this uut was automatically generated by:'
 power_avg        avg_power        inv_avg_power    peakpower         
 trf_delay_1      tfr_delay_1      trf_delay_2      tfr_delay_2       
 temper           alter#            
  9.900e-06       -9.702e-06        1.686e-06        2.167e-05        
  4.500e-12        3.503e-12        2.500e-12        5.122e-12        
   25.0000        1                 
