$DATA1 SOURCE='HSPICE' VERSION='F-2011.09-SP2 64-BIT'
.TITLE '$this uut was automatically generated by:'
 inv_avg_power0   peakpower0       trf_delay_01     tfr_delay_01      
 trf_delay_02     tfr_delay_02     trf_delay_03     tfr_delay_03      
 trf_delay_04     tfr_delay_04     inv_avg_power1   peakpower1        
 trf_delay_11     tfr_delay_11     trf_delay_12     tfr_delay_12      
 inv_avg_power2   peakpower2       trf_delay_21     tfr_delay_21      
 power_avg        avg_power        temper           alter#            
  8.246e-08        1.125e-05        4.149e-12        5.811e-12        
  6.688e-12        6.091e-12        6.270e-12        6.552e-12        
  6.204e-12        6.532e-12        4.385e-08        9.449e-06        
  4.149e-12        4.248e-12        6.270e-12        5.535e-12        
  2.359e-08        1.020e-05        4.149e-12        5.606e-12        
  3.287e-07       -2.794e-07         25.0000        1                 
