$DATA1 SOURCE='HSPICE' VERSION='F-2011.09-SP2 64-BIT'
.TITLE '$this uut was automatically generated by:'
 power_avg        avg_power        inv_avg_power    peakpower         
 trf_delay_1      tfr_delay_1      trf_delay_2      tfr_delay_2       
 temper           alter#            
  1.366e-06       -3.137e-09        3.991e-08        6.653e-06        
  4.702e-12        4.106e-12        4.565e-12        4.371e-12        
   25.0000        1                 
