***** HSPICE -- F-2011.09-SP2 64-BIT (Feb 27 2012) linux ******
 Input File: ptm7lstp.sp
 lic:
 lic: FLEXlm: v10.8
 lic: USER:   iliabautista         HOSTNAME: itn1.rc.usf.edu
 lic: HOSTID:                      PID:      106257
 lic: Using FLEXlm license file:
 lic: 27000@license0.rc.usf.edu
 lic: Checkout 1 hspice
 lic: License/Maintenance for hspice will expire on 18-jul-2021/2019.06
 lic: 1(in_use)/50(total) FLOATING license(s) on SERVER license0.rc.usf.edu
 lic:
 init: begin read circuit files,  cpu clock=  2.00E-02
       option post     =     2.00
 init: end read circuit files,  cpu clock=  2.00E-02 memory=       156 kb
 init: begin check errors,  cpu clock=  2.00E-02
 init: end check errors,  cpu clock=  4.00E-02 memory=       157 kb
 init: begin setup matrix, pivot=     0 cpu clock=  4.00E-02
       establish matrix -- done,  cpu clock=  4.00E-02 memory=       178 kb
       re-order matrix -- done,  cpu clock=  4.00E-02 memory=       174 kb
 init: end setup matrix,  cpu clock=  4.00E-02 memory=       217 kb
 dcop: begin dcop,  cpu clock=  4.00E-02
 dcop: end dcop,  cpu clock=  4.00E-02 memory=       217 kb  tot_iter=       4
 output: ptm7lstp.mt0
 sweep: tran tran0    begin, stop_t=  8.00E-09 #sweeps= 801 cpu clock=  4.00E-02
 tran: time= 9.2037E-10 tot_iter=      54 conv_iter=      16 cpu clock= 4.00E-02
 tran: time= 2.0000E-09 tot_iter=     132 conv_iter=      36 cpu clock= 5.00E-02
 tran: time= 2.5672E-09 tot_iter=     230 conv_iter=      59 cpu clock= 6.00E-02
 tran: time= 3.2500E-09 tot_iter=     315 conv_iter=      80 cpu clock= 7.00E-02
 tran: time= 4.0000E-09 tot_iter=     321 conv_iter=      83 cpu clock= 7.00E-02
 tran: time= 4.9479E-09 tot_iter=     432 conv_iter=     107 cpu clock= 8.00E-02
 tran: time= 5.7285E-09 tot_iter=     510 conv_iter=     128 cpu clock= 9.00E-02
 tran: time= 6.6092E-09 tot_iter=     610 conv_iter=     152 cpu clock= 1.00E-01
 tran: time= 7.2133E-09 tot_iter=     678 conv_iter=     170 cpu clock= 1.10E-01
 tran: time= 8.0000E-09 tot_iter=     684 conv_iter=     173 cpu clock= 1.10E-01
 sweep: tran tran0    end,  cpu clock=  1.10E-01 memory=       217 kb
>info:         ***** hspice job concluded
 lic: Release hspice token(s)
