$DATA1 SOURCE='HSPICE' VERSION='F-2011.09-SP2 64-BIT'
.TITLE '$this uut was automatically generated by:'
 trf_delay_001    tfr_delay_001    trf_delay_002    tfr_delay_002     
 trf_delay_101    tfr_delay_101    trf_delay_102    tfr_delay_102     
 trf_delay_011    tfr_delay_011    trf_delay_111    tfr_delay_111     
 inv_avg_power00  peakpower00      inv_avg_power10  peakpower10       
 inv_avg_power01  peakpower01      inv_avg_power11  peakpower11       
 source_power     temper           alter#            
  2.041e-12        4.867e-12        4.572e-12        4.573e-12        
  2.720e-12        1.740e-12        4.885e-13        1.827e-12        
  2.041e-12        4.599e-12        1.535e-12        1.740e-12        
  6.198e-08        7.397e-06        2.553e-08        5.379e-06        
  2.915e-08        6.970e-06        1.417e-08        6.287e-06        
  2.117e-07         25.0000        1                 
