 ****** HSPICE -- F-2011.09-SP2 64-BIT (Feb 27 2012) linux ******               
  Copyright (C) 2011 Synopsys, Inc. All Rights Reserved.                        
  Unpublished-rights reserved under US copyright laws.
  This program is protected by law and is subject to the
  terms and conditions of the license agreement from Synopsys.
  Use of this program is your acceptance to be bound by the
  license agreement. HSPICE is the trademark of Synopsys, Inc.
  Input File: ptm7lstp.sp                                                       
  Command line options: ptm7lstp.sp
 lic:  
 lic: FLEXlm: v10.8 
 lic: USER:   iliabautista         HOSTNAME: itn2.rc.usf.edu 
 lic: HOSTID:                      PID:      17725 
 lic: Using FLEXlm license file: 
 lic: 27000@license0.rc.usf.edu 
 lic: Checkout 1 hspice 
 lic: License/Maintenance for hspice will expire on 18-jul-2021/2019.06 
 lic: 1(in_use)/50(total) FLOATING license(s) on SERVER license0.rc.usf.edu 
 lic:   
  **warning** (../modelfiles/lstp/7nfet.pm:4) Model nfet device geometries will not be checked against the limits set by lmin, lmax, nfinmin and nfinmax. To enable this check, add a period(.) to the model name(i.e. enable model selector).
1****** HSPICE -- F-2011.09-SP2 64-BIT (Feb 27 2012) linux ******               
 ******  
 $this uut was automatically generated by:

  ******  circuit name directory
 circuit number to circuit name directory
   number circuitname                     definition         multiplier
        0 main circuit
        1 xinput_0.                       inverter           1.00 
        2 xinput_1.                       inverter           1.00 
        3 xinput_2.                       inverter           1.00 
        4 xinverter00.                    inverter           1.00 
        5 xinverter10.                    inverter           1.00 
        6 xinverter20.                    inverter           1.00 
        7 xinverter01.                    inverter           1.00 
        8 xinverter11.                    inverter           1.00 
        9 xinverter21.                    inverter           1.00 
       10 xinverter02.                    inverter           1.00 
       11 xinverter12.                    inverter           1.00 
       12 xinverter22.                    inverter           1.00 
       13 xoutput_00.                     inverter           1.00 
       14 xoutput_10.                     inverter           1.00 
       15 xoutput_20.                     inverter           1.00 
       16 xinput_0.xpfet.                 pfet               1.00 
       17 xinput_0.xnfet.                 nfet               1.00 
       18 xinput_1.xpfet.                 pfet               1.00 
       19 xinput_1.xnfet.                 nfet               1.00 
       20 xinput_2.xpfet.                 pfet               1.00 
       21 xinput_2.xnfet.                 nfet               1.00 
       22 xinverter00.xpfet.              pfet               1.00 
       23 xinverter00.xnfet.              nfet               1.00 
       24 xinverter10.xpfet.              pfet               1.00 
       25 xinverter10.xnfet.              nfet               1.00 
       26 xinverter20.xpfet.              pfet               1.00 
       27 xinverter20.xnfet.              nfet               1.00 
       28 xinverter01.xpfet.              pfet               1.00 
       29 xinverter01.xnfet.              nfet               1.00 
       30 xinverter11.xpfet.              pfet               1.00 
       31 xinverter11.xnfet.              nfet               1.00 
       32 xinverter21.xpfet.              pfet               1.00 
       33 xinverter21.xnfet.              nfet               1.00 
       34 xinverter02.xpfet.              pfet               1.00 
       35 xinverter02.xnfet.              nfet               1.00 
       36 xinverter12.xpfet.              pfet               1.00 
       37 xinverter12.xnfet.              nfet               1.00 
       38 xinverter22.xpfet.              pfet               1.00 
       39 xinverter22.xnfet.              nfet               1.00 
       40 xoutput_00.xpfet.               pfet               1.00 
       41 xoutput_00.xnfet.               nfet               1.00 
       42 xoutput_10.xpfet.               pfet               1.00 
       43 xoutput_10.xnfet.               nfet               1.00 
       44 xoutput_20.xpfet.               pfet               1.00 
       45 xoutput_20.xnfet.               nfet               1.00 
1****** HSPICE -- F-2011.09-SP2 64-BIT (Feb 27 2012) linux ******               
 ******  
 $this uut was automatically generated by:

  ******  mos   model parameters tnom=  25.000 temp=  25.000 *****
 Model Name: pfet 
 BSIM-MG BULK Model(Level72)
   VERSION = 105.03  
   DEVTYPE = -1 
   BULKMOD = 1  
   COREMOD = 0 
   GEOMOD = 1 
   RDSMOD = 1 
   IGCMOD = 1 
   IGBMOD = 1 
   GIDLMOD = 0 
   IIMOD = 0 
   NQSMOD = 0 
   SHMOD = 0 
   RGATEMOD = 0 
   RGEOMOD = 1 
   CGEOMOD = 2 
   CAPMOD = 0 
   LINT = -2.5e-10 m
   LL =      0 m^(LLN+1)
   LLN =      1 
   DLC =      0 m
   DLBIN =      0 
   LLC =      0 m^(LLN+1)
   EOT = 8.4e-10 m
   TOXP = 1.15e-09 m
   EOTBOX = 1.4e-07 m
   HFIN = 1.8e-08 m
   FECH =      1 
   DELTAW =      0 m
   FECHCV =      1 
   DELTAWCV =      0 m
   NBODY =  1e+22 m^-3
   NSD =  3e+26 m^-3
   PHIG =  4.564 eV
   EPSROX =    3.9 
   EPSRSUB =   11.9 
   EASUB =   4.05 eV
   NI0SUB = 1.1e+16 m^-3
   BG0SUB =   1.12 eV
   NC0SUB = 2.86e+25 m^-3
   NGATE =      0 m^-3
   CIT = 1.3e-05 F/m^2
   CDSC = 0.0252 F/m^2
   CDSCD =  0.007 F/m^2
   CDSCDR =  0.007 
   DVT0 =   0.01 
   DVT1 =   0.69 
   PHIN =   0.05 V
   ETA0 =   0.54 
   ETA0R =   0.54 
   DSUB =    0.9 
   K1RSCE =      0 V^1/2
   LPE0 =  5e-09 m
   DVTSHIFT =      0 
   QMFACTOR =      0 
   QMTCENIV =      0 
   QMTCENCV =      0 
   AQMTCEN =      0 
   BQMTCEN = 1.2e-08 
   ETAQM =   0.54 
   QM0 = 0.001143 
   PQM =   0.66 
   QM0ACC =  0.001 
   PQMACC =   0.66 
   VSAT = 1.53e+05 
   AVSAT =      0 
   BVSAT =  1e-07 
   VSAT1 = 1.53e+05 
   AVSAT1 =      0 
   BVSAT1 =  1e-07 
   DELTAVSAT =      1 
   KSATIV =    0.8 
   MEXP =      3 
   AMEXP =      0 
   BMEXP =      1 
   PTWG =      0 
   APTWG =      0 
   BPTWG =  1e-07 
   AT = -0.00156 
   TMEXP =      0 
   PTWGT =  0.004 
   U0 =   0.04 
   ETAMOB =      2 
   UP =      0 
   LPA =      1 
   UA =    0.3 
   AUA =      0 
   BUA =  1e-07 
   EU =    1.8 
   AEU =      0 
   BEU =  1e-07 
   UD =      0 
   AUD =      0 
   BUD =  5e-08 
   UCS =      0 
   UTE =      0 
   UTL = -0.0015 
   UA1 = 0.001032 
   UD1 =      0 
   UCSTE = -0.00478 
   RDSWMIN =      0 
   RDSW =    100 
   ARDSW =      0 
   BRDSW =  1e-07 
   RSWMIN =      0 
   RSW =      0 
   ARSW =      0 
   BRSW =  1e-07 
   RDWMIN =      0 
   RDW =      0 
   ARDW =      0 
   BRDW =  1e-07 
   PRWG =      0 
   WR =      1 
   PRT =  0.001 
   PDIBL1 =    1.3 
   PDIBL2 = 0.0002 
   DROUT =   1.06 
   PVAG =      1 
   PCLM =    0.2 
   APCLM =      0 
   BPCLM =  1e-07 
   PCLMG =      0 
   VASAT =    0.6 
   PCLMCV =  0.013 
   PCLMGCV =      0 
   VASATCV =    0.2 
   RGEXT =      0 ohm
   RGFIN =  0.001 ohm
   RSHS =      0 ohm
   RSHD =      0 ohm
   HEPI =  8e-09 m
   TSILI =  7e-09 m
   RHOC =  5e-13 ohm/m^2
   RHORSD =      1 ohm/m
   RHOEXT =      1 ohm/m
   CRATIO =    0.5 
   DELTAPRSD =      0 m
   SDTERM = 0 
   LSP = 2.2e-09 m
   LDG =  2e-09 m
   EPSRSP =    3.9 
   TGATE = 7.5e-09 m
   TMASK =      0 m
   ASILIEND =      0 m^2
   ARSDEND =      0 m^2
   PRSDEND =      0 m
   NSDE =  9e+25 m^-3
   RGEOA =      1 
   RGEOB =      0 m^-1
   RGEOC =      0 m^-1
   RGEOD =      0 m^-1
   RGEOE =      0 m^-1
   CGEOA =      1 
   CGEOB =      0 m^-1
   CGEOC =      0 m^-1
   CGEOD =      0 m^-1
   CGEOE =      1 
   AIGBINV = 0.0111 (Fs^2/g)^0.5m^-1
   BIGBINV =   0.03 (Fs^2/g)^0.5m^-1
   CIGBINV =  0.006 V^-1
   EIGBINV =    1.1 V
   NIGBINV =    1.2 
   AIGBACC = 0.0149 
   BIGBACC = 0.000949 
   CIGBACC =  0.075 
   NIGBACC =      3 
   AIGC = 0.0136 (Fs^2/g)^0.5m^-1
   BIGC = 0.00171 (Fs^2/g)^0.5m^-1V^-1
   CIGC =  0.075 V^-1
   NIGC =      1 
   DLCIGS =      0 m
   AIGS = 0.0136 (Fs^2/g)^0.5m^-1
   BIGS = 0.00171 (Fs^2/g)^0.5m^-1V^-1
   CIGS =  0.075 V^-1
   DLCIGD =      0 m
   AIGD = 0.0136 (Fs^2/g)^0.5m^-1
   BIGD = 0.00171 (Fs^2/g)^0.5m^-1V^-1
   CIGD =  0.075 V^-1
   POXEDGE =      1 
   AGIDL = 5.729e-12 ohm^-1
   BGIDL =  3e+08 V/m
   EGIDL =    0.1 V
   AGISL = 5.729e-12 ohm^-1
   BGISL =  3e+08 V/m
   EGISL =    0.1 V
   ALPHA0 =      0 mV^-1
   ALPHA1 =      0 V^-1
   BETA0 =     30 V^-1
   ALPHAII =      0 
   BETAII0 =      0 V^-1
   BETAII1 =      0 
   BETAII2 =    0.1 V
   ESATII =  1e+07 V/m
   LII =  5e-10 V/m
   SII0 =    0.5 V^-1
   SII1 =    0.1 
   SII2 =      0 V
   SIID =      0 V
   EOTACC = 8.4e-10 m
   DELVFBACC =      0 V
   CFS = 2.56e-11 F/m
   CFD = 2.65e-11 F/m
   COVS = 2.5e-11 F/m
   COVD = 2.5e-11 F/m
   CGSO =      0 F/m
   CGDO =      0 F/m
   CGSL =      0 F/m
   CGDL =      0 F/m
   CKAPPAS =    0.6 V
   CKAPPAD =    0.6 V
   CGBO =      0 F/m
   CGBL =      0 F/m
   CKAPPAB =    0.6 V
   CSDESW =      0 F/m
   CJS = 0.0005 F/m^2
   CJD = 0.0005 F/m^2
   CJSWS =  5e-10 F/m
   CJSWD =  5e-10 F/m
   CJSWGS =      0 F/m
   CJSWGD =      0 F/m
   PBS =      1 V
   PBD =      1 V
   PBSWS =      1 V
   PBSWD =      1 V
   PBSWGS =      1 V
   PBSWGD =      1 V
   MJS, =    0.5 
   MJD =    0.5 
   MJSWS =   0.33 
   MJSWD =   0.33 
   MJSWGS =   0.33 
   MJSWGD =   0.33 
   SJS =      0 
   SJD =      0 
   SJSWS =      0 
   SJSWD =      0 
   SJSWGS =      0 
   SJSWGD =      0 
   MJS2 =  0.125 
   MJD2 =  0.125 
   MJSWS2 =   0.33 
   MJSWD2 =   0.33 
   MJSWGS2 =   0.33 
   MJSWGD2 =   0.33 
   JSS = 0.0001 A/m^2
   JSD = 0.0001 A/m^2
   JSWS =      0 A/m
   JSWD =      0 A/m
   JSWGS =      0 A/m
   JSWGD =      0 A/m
   NJS =      1 
   NJD =      1 
   IJTHSFWD =    0.1 A
   IJTHDFWD =    0.1 A
   IJTHSREV =    0.1 A
   IJTHDREV =    0.1 A
   BVS =     10 V
   BVD =     10 V
   XJBVS =      1 
   XJBVD =      1 
   JTSS =      0 A/m^2
   JTSD =      0 A/m^2
   JTSSWS =      0 A/m
   JTSSWD =      0 A/m
   JTSSWGS =      0 A/m
   JTSSWGD =      0 A/m
   JTWEFF =      0 m
   NJTS =     20 
   NJTSD =     20 
   NJTSSW =     20 
   NJTSSWD =     20 
   NJTSSWG =     20 
   NJTSSWGD =     20 
   VTSS =     10 V
   VTSD =     10 V
   VTSSWS =     10 V
   VTSSWD =     10 V
   VTSSWGS =     10 V
   VTSSWGD =     10 V
   LINTIGEN =      0 m
   NTGEN =      1 
   AIGEN =      0 m^-3V^-1
   BIGEN =      0 m^-3V^-3
   XRCRG1 =     12 
   XRCRG2 =      1 
   NSEG = 5 
   EF =      1 
   EM = 4.1e+07 V/m
   NOIA = 6.25e+39 eV^-1s^1-EFm^-3
   NOIB = 3.125e+24 eV^-1s^1-EFm^-1
   NOIC = 8.75e+07 eV^-1s^1-EFm
   NTNOI =      1 
   TNOM =  300.1 K
   TBGASUB = 0.000702 eV/K
   TBGBSUB =   1108 K
   KT1 =      0 V
   KT1L =      0 Vm
   IIT =   -0.5 
   TII =      0 
   TGIDL = -0.0003 K^-1
   IGT =    2.5 
   TCJ =      0 K^-1
   TCJSW =      0 K^-1
   TCJSWG =      0 K^-1
   TPB =      0 K^-1
   TPBSW =      0 K^-1
   TPBSWG =      0 K^-1
   XTIS =      3 
   XTID =      3 
   XTSS =   0.02 
   XTSD =   0.02 
   XTSSWS =   0.02 
   XTSSWD =   0.02 
   XTSSWGS =   0.02 
   XTSSWGD =   0.02 
   TNJTS =      0 
   TNJTSD =      0 
   TNJTSSW =      0 
   TNJTSSWD =      0 
   TNJTSSWG =      0 
   TNJTSSWGD =      0 
   RTH0 =   0.01 ohm
   CTH0 =  1e-05 F
   WTH0 =      0 m
   LNBODY =      0 
   NNBODY =      0 
   PNBODY =      0 
   LPHIG =      0 
   NPHIG =      0 
   PPHIG =      0 
   LNGATE =      0 
   NNGATE =      0 
   PNGATE =      0 
   LCIT =      0 
   NCIT =      0 
   PCIT =      0 
   LCDSC =      0 
   NCDSC =      0 
   PCDSC =      0 
   LCDSCD =      0 
   NCDSCD =      0 
   PCDSCD =      0 
   LCDSCDR =      0 
   NCDSCDR =      0 
   PCDSCDR =      0 
   LDVT0 =      0 
   NDVT0 =      0 
   PDVT0 =      0 
   LDVT1 =      0 
   NDVT1 =      0 
   PDVT1 =      0 
   LPHIN =      0 
   NPHIN =      0 
   PPHIN =      0 
   LETA0 =      0 
   NETA0 =      0 
   PETA0 =      0 
   LETA0R =      0 
   NETA0R =      0 
   PETA0R =      0 
   LDSUB =      0 
   NDSUB =      0 
   PDSUB =      0 
   LK1RSCE =      0 
   NK1RSCE =      0 
   PK1RSCE =      0 
   LLPE0 =      0 
   NLPE0 =      0 
   PLPE0 =      0 
   LQMFACTOR =      0 
   NQMFACTOR =      0 
   PQMFACTOR =      0 
   LQMTCENIV =      0 
   NQMTCENIV =      0 
   PQMTCENIV =      0 
   LQMTCENCV =      0 
   NQMTCENCV =      0 
   PQMTCENCV =      0 
   LVSAT =      0 
   NVSAT =      0 
   PVSAT =      0 
   LKSATIV =      0 
   NKSATIV =      0 
   PKSATIV =      0 
   LMEXP =      0 
   NMEXP =      0 
   PMEXP =      0 
   LPTWG =      0 
   NPTWG =      0 
   PPTWG =      0 
   LTHETASAT =      0 
   NTHETASAT =      0 
   PTHETASAT =      0 
   LU0 =      0 
   NU0 =      0 
   PU0 =      0 
   LUP =      0 
   NUP =      0 
   PUP =      0 
   LUA =      0 
   NUA =      0 
   PUA =      0 
   LEU =      0 
   NEU =      0 
   PEU =      0 
   LUD =      0 
   NUD =      0 
   PUD =      0 
   LUCS =      0 
   NUCS =      0 
   PUCS =      0 
   LPCLM =      0 
   NPCLM =      0 
   PPCLM =      0 
   LPCLMCV =      0 
   NPCLMCV =      0 
   PPCLMCV =      0 
   LRDSW =      0 
   NRDSW =      0 
   PRDSW =      0 
   LRSW =      0 
   NRSW =      0 
   PRSW =      0 
   LRDW =      0 
   NRDW =      0 
   PRDW =      0 
   LPRWG =      0 
   NPRWG =      0 
   PPRWG =      0 
   LWR =      0 
   NWR =      0 
   PWR =      0 
   LPDIBL1 =      0 
   NPDIBL1 =      0 
   PPDIBL1 =      0 
   LPDIBL2 =      0 
   NPDIBL2 =      0 
   PPDIBL2 =      0 
   LDROUT =      0 
   NDROUT =      0 
   PDROUT =      0 
   LPVAG =      0 
   NPVAG =      0 
   PPVAG =      0 
   LAIGBINV =      0 
   NAIGBINV =      0 
   PAIGBINV =      0 
   LBIGBINV =      0 
   NBIGBINV =      0 
   PBIGBINV =      0 
   LCIGBINV =      0 
   NCIGBINV =      0 
   PCIGBINV =      0 
   LEIGBINV =      0 
   NEIGBINV =      0 
   PEIGBINV =      0 
   LNIGBINV =      0 
   NNIGBINV =      0 
   PNIGBINV =      0 
   LAIGC =      0 
   NAIGC =      0 
   PAIGC =      0 
   LBIGC =      0 
   NBIGC =      0 
   PBIGC =      0 
   LCIGC =      0 
   NCIGC =      0 
   PCIGC =      0 
   LNIGC =      0 
   NNIGC =      0 
   PNIGC =      0 
   LAIGS =      0 
   NAIGS =      0 
   PAIGS =      0 
   LBIGS =      0 
   NBIGS =      0 
   PBIGS =      0 
   LCIGS =      0 
   NCIGS =      0 
   PCIGS =      0 
   LAIGD =      0 
   NAIGD =      0 
   PAIGD =      0 
   LBIGD =      0 
   NBIGD =      0 
   PBIGD =      0 
   LCIGD =      0 
   NCIGD =      0 
   PCIGD =      0 
   LPOXEDGE =      0 
   NPOXEDGE =      0 
   PPOXEDGE =      0 
   LAGIDL =      0 
   NAGIDL =      0 
   PAGIDL =      0 
   LBGIDL =      0 
   NBGIDL =      0 
   PBGIDL =      0 
   LEGIDL =      0 
   NEGIDL =      0 
   PEGIDL =      0 
   LAGISL =      0 
   NAGISL =      0 
   PAGISL =      0 
   LBGISL =      0 
   NBGISL =      0 
   PBGISL =      0 
   LEGISL =      0 
   NEGISL =      0 
   PEGISL =      0 
   LALPHA0 =      0 
   NALPHA0 =      0 
   PALPHA0 =      0 
   LALPHA1 =      0 
   NALPHA1 =      0 
   PALPHA1 =      0 
   LBETA0 =      0 
   NBETA0 =      0 
   PBETA0 =      0 
   LALPHAII =      0 
   NALPHAII =      0 
   PALPHAII =      0 
   LBETAII0 =      0 
   NBETAII0 =      0 
   PBETAII0 =      0 
   LBETAII1 =      0 
   NBETAII1 =      0 
   PBETAII1 =      0 
   LBETAII2 =      0 
   NBETAII2 =      0 
   PBETAII2 =      0 
   LESATII =      0 
   NESATII =      0 
   PESATII =      0 
   LLII =      0 
   NLII =      0 
   PLII =      0 
   LSII0 =      0 
   NSII0 =      0 
   PSII0 =      0 
   LSII1 =      0 
   NSII1 =      0 
   PSII1 =      0 
   LSII2 =      0 
   NSII2 =      0 
   PSII2 =      0 
   LSIID =      0 
   NSIID =      0 
   PSIID =      0 
   LCFS =      0 
   NCFS =      0 
   PCFS =      0 
   LCFD =      0 
   NCFD =      0 
   PCFD =      0 
   LCOVS =      0 
   NCOVS =      0 
   PCOVS =      0 
   LCOVD =      0 
   NCOVD =      0 
   PCOVD =      0 
   LCGSL =      0 
   NCGSL =      0 
   PCGSL =      0 
   LCGDL =      0 
   NCGDL =      0 
   PCGDL =      0 
   LCKAPPAS =      0 
   NCKAPPAS =      0 
   PCKAPPAS =      0 
   LCKAPPAD =      0 
   NCKAPPAD =      0 
   PCKAPPAD =      0 
   LCGBL =      0 
   NCGBL =      0 
   PCGBL =      0 
   LCKAPPAB =      0 
   NCKAPPAB =      0 
   PCKAPPAB =      0 
   LNTGEN =      0 
   NNTGEN =      0 
   PNTGEN =      0 
   LAIGEN =      0 
   NAIGEN =      0 
   PAIGEN =      0 
   LBIGEN =      0 
   NBIGEN =      0 
   PBIGEN =      0 
   LXRCRG1 =      0 
   NXRCRG1 =      0 
   PXRCRG1 =      0 
   LXRCRG2 =      0 
   NXRCRG2 =      0 
   PXRCRG2 =      0 
   LINTNOI =      0 
   NINTNOI =      0 
   PINTNOI =      0 
   LUTE =      0 
   NUTE =      0 
   PUTE =      0 
   LUTL =      0 
   NUTL =      0 
   PUTL =      0 
   LUA1 =      0 
   NUA1 =      0 
   PUA1 =      0 
   LUD1 =      0 
   NUD1 =      0 
   PUD1 =      0 
   LUCSTE =      0 
   NUCSTE =      0 
   PUCSTE =      0 
   LPTWGT =      0 
   NPTWGT =      0 
   PPTWGT =      0 
   LAT =      0 
   NAT =      0 
   PAT =      0 
   LSTTHETASAT =      0 
   NSTTHETASAT =      0 
   PSTTHETASAT =      0 
   LPRT =      0 
   NPRT =      0 
   PPRT =      0 
   LIIT =      0 
   NIIT =      0 
   PIIT =      0 
   LTII =      0 
   NTII =      0 
   PTII =      0 
   LTGIDL =      0 
   NTGIDL =      0 
   PTGIDL =      0 
   LIGT =      0 
   NIGT =      0 
   PIGT =      0 
   L = 1.1e-08 m
   D =  4e-08 m
   TFIN = 6.5e-09 m
   FPITCH = 2.2e-08 m
   NF = 1 
   NFIN = 1 
   NGCON = 1 
   ASEO =      0 m^2
   ADEO =      0 m^2
   PSEO =      0 m
   PDEO =      0 m
   ASEJ =      0 m^2
   ADEJ =      0 m^2
   PSEJ =      0 m
   PDEJ =      0 m
   CGSP =      0 F
   CGDP =      0 F
   CDSP =      0 F
   NRS =      0 
   NRD =      0 
   LRSD = 1.1e-08 m
   XL =      0 m
   DELVTRAND =      0 
   U0MULT =      1 
   IDS0MULT =      1 
   Lmin =  1e-08 m
   Lmax =  3e-08 m
   NFINmin = 0 
   NFINmax = 1 
   LVSAT1 =      0 
   NVSAT1 =      0 
   PVSAT1 =      0 
   LETAMOB =      0 
   NETAMOB =      0 
   PETAMOB =      0 
   LPCLMG =      0 
   NPCLMG =      0 
   PPCLMG =      0 
   LVASAT =      0 
   NVASAT =      0 
   PVASAT =      0 
   LAIGBACC =      0 
   NAIGBACC =      0 
   PAIGBACC =      0 
   LBIGBACC =      0 
   NBIGBACC =      0 
   PBIGBACC =      0 
   LCIGBACC =      0 
   NCIGBACC =      0 
   PCIGBACC =      0 
   LNIGBACC =      0 
   NNIGBACC =      0 
   PNIGBACC =      0 
 Model Name: nfet 
 BSIM-MG BULK Model(Level72)
   VERSION = 105.03  
   DEVTYPE = 1 
   BULKMOD = 1  
   COREMOD = 0 
   GEOMOD = 1 
   RDSMOD = 1 
   IGCMOD = 1 
   IGBMOD = 1 
   GIDLMOD = 0 
   IIMOD = 0 
   NQSMOD = 0 
   SHMOD = 0 
   RGATEMOD = 0 
   RGEOMOD = 1 
   CGEOMOD = 2 
   CAPMOD = 0 
   LINT = -2.5e-10 m
   LL =      0 m^(LLN+1)
   LLN =      1 
   DLC =      0 m
   DLBIN =      0 
   LLC =      0 m^(LLN+1)
   EOT = 8.4e-10 m
   TOXP = 1.15e-09 m
   EOTBOX = 1.4e-07 m
   HFIN = 1.8e-08 m
   FECH =      1 
   DELTAW =      0 m
   FECHCV =      1 
   DELTAWCV =      0 m
   NBODY =  1e+22 m^-3
   NSD =  3e+26 m^-3
   PHIG =  4.614 eV
   EPSROX =    3.9 
   EPSRSUB =   11.9 
   EASUB =   4.05 eV
   NI0SUB = 1.1e+16 m^-3
   BG0SUB =   1.12 eV
   NC0SUB = 2.86e+25 m^-3
   NGATE =      0 m^-3
   CIT = 1.3e-05 F/m^2
   CDSC = 0.0252 F/m^2
   CDSCD =  0.007 F/m^2
   CDSCDR =  0.007 
   DVT0 =   0.01 
   DVT1 =   0.69 
   PHIN =   0.05 V
   ETA0 =   0.39 
   ETA0R =   0.39 
   DSUB =    0.9 
   K1RSCE =      0 V^1/2
   LPE0 =  5e-09 m
   DVTSHIFT =      0 
   QMFACTOR =      0 
   QMTCENIV =      0 
   QMTCENCV =      0 
   AQMTCEN =      0 
   BQMTCEN = 1.2e-08 
   ETAQM =   0.54 
   QM0 = 0.001143 
   PQM =   0.66 
   QM0ACC =  0.001 
   PQMACC =   0.66 
   VSAT = 1.6e+05 
   AVSAT =      0 
   BVSAT =  1e-07 
   VSAT1 = 1.6e+05 
   AVSAT1 =      0 
   BVSAT1 =  1e-07 
   DELTAVSAT =      1 
   KSATIV =    0.8 
   MEXP =      3 
   AMEXP =      0 
   BMEXP =      1 
   PTWG =      0 
   APTWG =      0 
   BPTWG =  1e-07 
   AT = -0.00156 
   TMEXP =      0 
   PTWGT =  0.004 
   U0 =  0.065 
   ETAMOB =      2 
   UP =      0 
   LPA =      1 
   UA =    0.3 
   AUA =      0 
   BUA =  1e-07 
   EU =    1.8 
   AEU =      0 
   BEU =  1e-07 
   UD =      0 
   AUD =      0 
   BUD =  5e-08 
   UCS =      0 
   UTE =      0 
   UTL = -0.0015 
   UA1 = 0.001032 
   UD1 =      0 
   UCSTE = -0.00478 
   RDSWMIN =      0 
   RDSW =    100 
   ARDSW =      0 
   BRDSW =  1e-07 
   RSWMIN =      0 
   RSW =      0 
   ARSW =      0 
   BRSW =  1e-07 
   RDWMIN =      0 
   RDW =      0 
   ARDW =      0 
   BRDW =  1e-07 
   PRWG =      0 
   WR =      1 
   PRT =  0.001 
   PDIBL1 =    1.3 
   PDIBL2 = 0.0002 
   DROUT =   1.06 
   PVAG =      1 
   PCLM =    0.2 
   APCLM =      0 
   BPCLM =  1e-07 
   PCLMG =      0 
   VASAT =    0.6 
   PCLMCV =  0.013 
   PCLMGCV =      0 
   VASATCV =    0.2 
   RGEXT =      0 ohm
   RGFIN =  0.001 ohm
   RSHS =      0 ohm
   RSHD =      0 ohm
   HEPI =  8e-09 m
   TSILI =  7e-09 m
   RHOC =  4e-13 ohm/m^2
   RHORSD =      1 ohm/m
   RHOEXT =      1 ohm/m
   CRATIO =    0.5 
   DELTAPRSD =      0 m
   SDTERM = 0 
   LSP = 2.2e-09 m
   LDG =  2e-09 m
   EPSRSP =    3.9 
   TGATE = 7.5e-09 m
   TMASK =      0 m
   ASILIEND =      0 m^2
   ARSDEND =      0 m^2
   PRSDEND =      0 m
   NSDE =  9e+25 m^-3
   RGEOA =      1 
   RGEOB =      0 m^-1
   RGEOC =      0 m^-1
   RGEOD =      0 m^-1
   RGEOE =      0 m^-1
   CGEOA =      1 
   CGEOB =      0 m^-1
   CGEOC =      0 m^-1
   CGEOD =      0 m^-1
   CGEOE =      1 
   AIGBINV = 0.0111 (Fs^2/g)^0.5m^-1
   BIGBINV =   0.03 (Fs^2/g)^0.5m^-1
   CIGBINV =  0.006 V^-1
   EIGBINV =    1.1 V
   NIGBINV =    1.2 
   AIGBACC = 0.0149 
   BIGBACC = 0.000949 
   CIGBACC =  0.075 
   NIGBACC =      3 
   AIGC = 0.0136 (Fs^2/g)^0.5m^-1
   BIGC = 0.00171 (Fs^2/g)^0.5m^-1V^-1
   CIGC =  0.075 V^-1
   NIGC =      1 
   DLCIGS =      0 m
   AIGS = 0.0136 (Fs^2/g)^0.5m^-1
   BIGS = 0.00171 (Fs^2/g)^0.5m^-1V^-1
   CIGS =  0.075 V^-1
   DLCIGD =      0 m
   AIGD = 0.0136 (Fs^2/g)^0.5m^-1
   BIGD = 0.00171 (Fs^2/g)^0.5m^-1V^-1
   CIGD =  0.075 V^-1
   POXEDGE =      1 
   AGIDL = 5.729e-12 ohm^-1
   BGIDL =  3e+08 V/m
   EGIDL =    0.1 V
   AGISL = 5.729e-12 ohm^-1
   BGISL =  3e+08 V/m
   EGISL =    0.1 V
   ALPHA0 =      0 mV^-1
   ALPHA1 =      0 V^-1
   BETA0 =     30 V^-1
   ALPHAII =      0 
   BETAII0 =      0 V^-1
   BETAII1 =      0 
   BETAII2 =    0.1 V
   ESATII =  1e+07 V/m
   LII =  5e-10 V/m
   SII0 =    0.5 V^-1
   SII1 =    0.1 
   SII2 =      0 V
   SIID =      0 V
   EOTACC = 8.4e-10 m
   DELVFBACC =      0 V
   CFS = 2.56e-11 F/m
   CFD = 2.65e-11 F/m
   COVS = 2.5e-11 F/m
   COVD = 2.5e-11 F/m
   CGSO =      0 F/m
   CGDO =      0 F/m
   CGSL =      0 F/m
   CGDL =      0 F/m
   CKAPPAS =    0.6 V
   CKAPPAD =    0.6 V
   CGBO =      0 F/m
   CGBL =      0 F/m
   CKAPPAB =    0.6 V
   CSDESW =      0 F/m
   CJS = 0.0005 F/m^2
   CJD = 0.0005 F/m^2
   CJSWS =  5e-10 F/m
   CJSWD =  5e-10 F/m
   CJSWGS =      0 F/m
   CJSWGD =      0 F/m
   PBS =      1 V
   PBD =      1 V
   PBSWS =      1 V
   PBSWD =      1 V
   PBSWGS =      1 V
   PBSWGD =      1 V
   MJS, =    0.5 
   MJD =    0.5 
   MJSWS =   0.33 
   MJSWD =   0.33 
   MJSWGS =   0.33 
   MJSWGD =   0.33 
   SJS =      0 
   SJD =      0 
   SJSWS =      0 
   SJSWD =      0 
   SJSWGS =      0 
   SJSWGD =      0 
   MJS2 =  0.125 
   MJD2 =  0.125 
   MJSWS2 =   0.33 
   MJSWD2 =   0.33 
   MJSWGS2 =   0.33 
   MJSWGD2 =   0.33 
   JSS = 0.0001 A/m^2
   JSD = 0.0001 A/m^2
   JSWS =      0 A/m
   JSWD =      0 A/m
   JSWGS =      0 A/m
   JSWGD =      0 A/m
   NJS =      1 
   NJD =      1 
   IJTHSFWD =    0.1 A
   IJTHDFWD =    0.1 A
   IJTHSREV =    0.1 A
   IJTHDREV =    0.1 A
   BVS =     10 V
   BVD =     10 V
   XJBVS =      1 
   XJBVD =      1 
   JTSS =      0 A/m^2
   JTSD =      0 A/m^2
   JTSSWS =      0 A/m
   JTSSWD =      0 A/m
   JTSSWGS =      0 A/m
   JTSSWGD =      0 A/m
   JTWEFF =      0 m
   NJTS =     20 
   NJTSD =     20 
   NJTSSW =     20 
   NJTSSWD =     20 
   NJTSSWG =     20 
   NJTSSWGD =     20 
   VTSS =     10 V
   VTSD =     10 V
   VTSSWS =     10 V
   VTSSWD =     10 V
   VTSSWGS =     10 V
   VTSSWGD =     10 V
   LINTIGEN =      0 m
   NTGEN =      1 
   AIGEN =      0 m^-3V^-1
   BIGEN =      0 m^-3V^-3
   XRCRG1 =     12 
   XRCRG2 =      1 
   NSEG = 5 
   EF =      1 
   EM = 4.1e+07 V/m
   NOIA = 6.25e+39 eV^-1s^1-EFm^-3
   NOIB = 3.125e+24 eV^-1s^1-EFm^-1
   NOIC = 8.75e+07 eV^-1s^1-EFm
   NTNOI =      1 
   TNOM =  300.1 K
   TBGASUB = 0.000702 eV/K
   TBGBSUB =   1108 K
   KT1 =      0 V
   KT1L =      0 Vm
   IIT =   -0.5 
   TII =      0 
   TGIDL = -0.0003 K^-1
   IGT =    2.5 
   TCJ =      0 K^-1
   TCJSW =      0 K^-1
   TCJSWG =      0 K^-1
   TPB =      0 K^-1
   TPBSW =      0 K^-1
   TPBSWG =      0 K^-1
   XTIS =      3 
   XTID =      3 
   XTSS =   0.02 
   XTSD =   0.02 
   XTSSWS =   0.02 
   XTSSWD =   0.02 
   XTSSWGS =   0.02 
   XTSSWGD =   0.02 
   TNJTS =      0 
   TNJTSD =      0 
   TNJTSSW =      0 
   TNJTSSWD =      0 
   TNJTSSWG =      0 
   TNJTSSWGD =      0 
   RTH0 =   0.01 ohm
   CTH0 =  1e-05 F
   WTH0 =      0 m
   LNBODY =      0 
   NNBODY =      0 
   PNBODY =      0 
   LPHIG =      0 
   NPHIG =      0 
   PPHIG =      0 
   LNGATE =      0 
   NNGATE =      0 
   PNGATE =      0 
   LCIT =      0 
   NCIT =      0 
   PCIT =      0 
   LCDSC =      0 
   NCDSC =      0 
   PCDSC =      0 
   LCDSCD =      0 
   NCDSCD =      0 
   PCDSCD =      0 
   LCDSCDR =      0 
   NCDSCDR =      0 
   PCDSCDR =      0 
   LDVT0 =      0 
   NDVT0 =      0 
   PDVT0 =      0 
   LDVT1 =      0 
   NDVT1 =      0 
   PDVT1 =      0 
   LPHIN =      0 
   NPHIN =      0 
   PPHIN =      0 
   LETA0 =      0 
   NETA0 =      0 
   PETA0 =      0 
   LETA0R =      0 
   NETA0R =      0 
   PETA0R =      0 
   LDSUB =      0 
   NDSUB =      0 
   PDSUB =      0 
   LK1RSCE =      0 
   NK1RSCE =      0 
   PK1RSCE =      0 
   LLPE0 =      0 
   NLPE0 =      0 
   PLPE0 =      0 
   LQMFACTOR =      0 
   NQMFACTOR =      0 
   PQMFACTOR =      0 
   LQMTCENIV =      0 
   NQMTCENIV =      0 
   PQMTCENIV =      0 
   LQMTCENCV =      0 
   NQMTCENCV =      0 
   PQMTCENCV =      0 
   LVSAT =      0 
   NVSAT =      0 
   PVSAT =      0 
   LKSATIV =      0 
   NKSATIV =      0 
   PKSATIV =      0 
   LMEXP =      0 
   NMEXP =      0 
   PMEXP =      0 
   LPTWG =      0 
   NPTWG =      0 
   PPTWG =      0 
   LTHETASAT =      0 
   NTHETASAT =      0 
   PTHETASAT =      0 
   LU0 =      0 
   NU0 =      0 
   PU0 =      0 
   LUP =      0 
   NUP =      0 
   PUP =      0 
   LUA =      0 
   NUA =      0 
   PUA =      0 
   LEU =      0 
   NEU =      0 
   PEU =      0 
   LUD =      0 
   NUD =      0 
   PUD =      0 
   LUCS =      0 
   NUCS =      0 
   PUCS =      0 
   LPCLM =      0 
   NPCLM =      0 
   PPCLM =      0 
   LPCLMCV =      0 
   NPCLMCV =      0 
   PPCLMCV =      0 
   LRDSW =      0 
   NRDSW =      0 
   PRDSW =      0 
   LRSW =      0 
   NRSW =      0 
   PRSW =      0 
   LRDW =      0 
   NRDW =      0 
   PRDW =      0 
   LPRWG =      0 
   NPRWG =      0 
   PPRWG =      0 
   LWR =      0 
   NWR =      0 
   PWR =      0 
   LPDIBL1 =      0 
   NPDIBL1 =      0 
   PPDIBL1 =      0 
   LPDIBL2 =      0 
   NPDIBL2 =      0 
   PPDIBL2 =      0 
   LDROUT =      0 
   NDROUT =      0 
   PDROUT =      0 
   LPVAG =      0 
   NPVAG =      0 
   PPVAG =      0 
   LAIGBINV =      0 
   NAIGBINV =      0 
   PAIGBINV =      0 
   LBIGBINV =      0 
   NBIGBINV =      0 
   PBIGBINV =      0 
   LCIGBINV =      0 
   NCIGBINV =      0 
   PCIGBINV =      0 
   LEIGBINV =      0 
   NEIGBINV =      0 
   PEIGBINV =      0 
   LNIGBINV =      0 
   NNIGBINV =      0 
   PNIGBINV =      0 
   LAIGC =      0 
   NAIGC =      0 
   PAIGC =      0 
   LBIGC =      0 
   NBIGC =      0 
   PBIGC =      0 
   LCIGC =      0 
   NCIGC =      0 
   PCIGC =      0 
   LNIGC =      0 
   NNIGC =      0 
   PNIGC =      0 
   LAIGS =      0 
   NAIGS =      0 
   PAIGS =      0 
   LBIGS =      0 
   NBIGS =      0 
   PBIGS =      0 
   LCIGS =      0 
   NCIGS =      0 
   PCIGS =      0 
   LAIGD =      0 
   NAIGD =      0 
   PAIGD =      0 
   LBIGD =      0 
   NBIGD =      0 
   PBIGD =      0 
   LCIGD =      0 
   NCIGD =      0 
   PCIGD =      0 
   LPOXEDGE =      0 
   NPOXEDGE =      0 
   PPOXEDGE =      0 
   LAGIDL =      0 
   NAGIDL =      0 
   PAGIDL =      0 
   LBGIDL =      0 
   NBGIDL =      0 
   PBGIDL =      0 
   LEGIDL =      0 
   NEGIDL =      0 
   PEGIDL =      0 
   LAGISL =      0 
   NAGISL =      0 
   PAGISL =      0 
   LBGISL =      0 
   NBGISL =      0 
   PBGISL =      0 
   LEGISL =      0 
   NEGISL =      0 
   PEGISL =      0 
   LALPHA0 =      0 
   NALPHA0 =      0 
   PALPHA0 =      0 
   LALPHA1 =      0 
   NALPHA1 =      0 
   PALPHA1 =      0 
   LBETA0 =      0 
   NBETA0 =      0 
   PBETA0 =      0 
   LALPHAII =      0 
   NALPHAII =      0 
   PALPHAII =      0 
   LBETAII0 =      0 
   NBETAII0 =      0 
   PBETAII0 =      0 
   LBETAII1 =      0 
   NBETAII1 =      0 
   PBETAII1 =      0 
   LBETAII2 =      0 
   NBETAII2 =      0 
   PBETAII2 =      0 
   LESATII =      0 
   NESATII =      0 
   PESATII =      0 
   LLII =      0 
   NLII =      0 
   PLII =      0 
   LSII0 =      0 
   NSII0 =      0 
   PSII0 =      0 
   LSII1 =      0 
   NSII1 =      0 
   PSII1 =      0 
   LSII2 =      0 
   NSII2 =      0 
   PSII2 =      0 
   LSIID =      0 
   NSIID =      0 
   PSIID =      0 
   LCFS =      0 
   NCFS =      0 
   PCFS =      0 
   LCFD =      0 
   NCFD =      0 
   PCFD =      0 
   LCOVS =      0 
   NCOVS =      0 
   PCOVS =      0 
   LCOVD =      0 
   NCOVD =      0 
   PCOVD =      0 
   LCGSL =      0 
   NCGSL =      0 
   PCGSL =      0 
   LCGDL =      0 
   NCGDL =      0 
   PCGDL =      0 
   LCKAPPAS =      0 
   NCKAPPAS =      0 
   PCKAPPAS =      0 
   LCKAPPAD =      0 
   NCKAPPAD =      0 
   PCKAPPAD =      0 
   LCGBL =      0 
   NCGBL =      0 
   PCGBL =      0 
   LCKAPPAB =      0 
   NCKAPPAB =      0 
   PCKAPPAB =      0 
   LNTGEN =      0 
   NNTGEN =      0 
   PNTGEN =      0 
   LAIGEN =      0 
   NAIGEN =      0 
   PAIGEN =      0 
   LBIGEN =      0 
   NBIGEN =      0 
   PBIGEN =      0 
   LXRCRG1 =      0 
   NXRCRG1 =      0 
   PXRCRG1 =      0 
   LXRCRG2 =      0 
   NXRCRG2 =      0 
   PXRCRG2 =      0 
   LINTNOI =      0 
   NINTNOI =      0 
   PINTNOI =      0 
   LUTE =      0 
   NUTE =      0 
   PUTE =      0 
   LUTL =      0 
   NUTL =      0 
   PUTL =      0 
   LUA1 =      0 
   NUA1 =      0 
   PUA1 =      0 
   LUD1 =      0 
   NUD1 =      0 
   PUD1 =      0 
   LUCSTE =      0 
   NUCSTE =      0 
   PUCSTE =      0 
   LPTWGT =      0 
   NPTWGT =      0 
   PPTWGT =      0 
   LAT =      0 
   NAT =      0 
   PAT =      0 
   LSTTHETASAT =      0 
   NSTTHETASAT =      0 
   PSTTHETASAT =      0 
   LPRT =      0 
   NPRT =      0 
   PPRT =      0 
   LIIT =      0 
   NIIT =      0 
   PIIT =      0 
   LTII =      0 
   NTII =      0 
   PTII =      0 
   LTGIDL =      0 
   NTGIDL =      0 
   PTGIDL =      0 
   LIGT =      0 
   NIGT =      0 
   PIGT =      0 
   L = 1.1e-08 m
   D =  4e-08 m
   TFIN = 6.5e-09 m
   FPITCH = 2.2e-08 m
   NF = 1 
   NFIN = 1 
   NGCON = 1 
   ASEO =      0 m^2
   ADEO =      0 m^2
   PSEO =      0 m
   PDEO =      0 m
   ASEJ =      0 m^2
   ADEJ =      0 m^2
   PSEJ =      0 m
   PDEJ =      0 m
   CGSP =      0 F
   CGDP =      0 F
   CDSP =      0 F
   NRS =      0 
   NRD =      0 
   LRSD = 1.1e-08 m
   XL =      0 m
   DELVTRAND =      0 
   U0MULT =      1 
   IDS0MULT =      1 
   Lmin =  1e-08 m
   Lmax =  3e-08 m
   NFINmin = 0 
   NFINmax = 1 
   LVSAT1 =      0 
   NVSAT1 =      0 
   PVSAT1 =      0 
   LETAMOB =      0 
   NETAMOB =      0 
   PETAMOB =      0 
   LPCLMG =      0 
   NPCLMG =      0 
   PPCLMG =      0 
   LVASAT =      0 
   NVASAT =      0 
   PVASAT =      0 
   LAIGBACC =      0 
   NAIGBACC =      0 
   PAIGBACC =      0 
   LBIGBACC =      0 
   NBIGBACC =      0 
   PBIGBACC =      0 
   LCIGBACC =      0 
   NCIGBACC =      0 
   PCIGBACC =      0 
   LNIGBACC =      0 
   NNIGBACC =      0 
   PNIGBACC =      0 
  **info** (ptm7lstp.sp:15) DC voltage reset to initial transient source value              in source        0:vin_0               new dc=  0.7000D+00
  
 **warning**  No DC path to ground from node        0:outin_40         defined in subckt 0               ; Connected by HSPICE with gdcpath


      
 **info** set option symb=1 internally to help for convergence.
 *****************************************************************
 ******  option summary
 ******
 runlvl  = 3         bypass  = 2         
  Opening plot unit= 15
 file=ptm7lstp.pa0                                                             

1****** HSPICE -- F-2011.09-SP2 64-BIT (Feb 27 2012) linux ******               
 ******  
 $this uut was automatically generated by:

  ******  operating point information tnom=  25.000 temp=  25.000 *****
 ***** operating point status is voltage   simulation time is     0.     
     node    =voltage       node    =voltage       node    =voltage

 + 0:inb_0   = 700.0000m  0:inb_1   = 700.0000m  0:inb_2   = 700.0000m
 + 0:outb_00 = 699.9853m  0:outb_10 = 699.9853m  0:outb_20 = 699.9853m
 + 0:outin_00=  13.6288u  0:outin_01=  13.6288u  0:outin_02=  13.6288u
 + 0:outin_10= 699.9875m  0:outin_11= 699.9875m  0:outin_12= 699.9875m
 + 0:outin_20=  13.6328u  0:outin_21=  13.6328u  0:outin_22=  13.6328u
 + 0:outin_30= 699.9876m  0:outin_31= 699.9876m  0:outin_32= 699.9876m
 + 0:outin_40=   7.0930m  0:outin_41=   7.0930m  0:outin_42=   7.0930m
 + 0:vdd     = 700.0000m

 ******  
 $this uut was automatically generated by:

  ******  transient analysis tnom=  25.000 temp=  25.000 *****
 trf_delay_001=   1.7684p  targ=  34.0049p   trig=  32.2366p
 tfr_delay_001=   4.6505p  targ=   1.0851n   trig=   1.0804n
 trf_delay_002=   4.9211p  targ=   2.0350n   trig=   2.0301n
 tfr_delay_002=   1.1008p  targ=   3.0832n   trig=   3.0821n
 trf_delay_003=   4.9491p  targ=   4.0351n   trig=   4.0301n
 tfr_delay_003=   4.3943p  targ=   5.0862n   trig=   5.0818n
 trf_delay_004=   4.9162p  targ=   6.0350n   trig=   6.0301n
 tfr_delay_004=   4.7540p  targ=   7.0850n   trig=   7.0803n
 trf_delay_101=   3.4546p  targ=   1.0885n   trig=   1.0851n
 tfr_delay_101=   3.8685p  targ=  37.8735p   trig=  34.0049p
 trf_delay_102=   2.6491p  targ=   3.0859n   trig=   3.0832n
 tfr_delay_102=   3.4250p  targ=   2.0384n   trig=   2.0350n
 trf_delay_103=   3.3069p  targ=   5.0895n   trig=   5.0862n
 tfr_delay_103=   3.4695p  targ=   4.0386n   trig=   4.0351n
 trf_delay_104=   3.4957p  targ=   7.0885n   trig=   7.0850n
 tfr_delay_104=   3.4480p  targ=   6.0385n   trig=   6.0350n
 trf_delay_201=   2.0802p  targ=  39.9537p   trig=  37.8735p
 tfr_delay_201=   1.6283p  targ=   1.0902n   trig=   1.0885n
 trf_delay_202=   1.8338p  targ=   2.0403n   trig=   2.0384n
 tfr_delay_202=   2.5909p  targ=   3.0885n   trig=   3.0859n
 trf_delay_203=   1.6704p  targ=   4.0402n   trig=   4.0386n
 tfr_delay_203=   1.7320p  targ=   5.0912n   trig=   5.0895n
 trf_delay_204=   1.7804p  targ=   6.0402n   trig=   6.0385n
 tfr_delay_204=   1.5799p  targ=   7.0901n   trig=   7.0885n
 trf_delay_011=   1.7684p  targ=  34.0049p   trig=  32.2366p
 tfr_delay_011=   4.6859p  targ=   2.0864n   trig=   2.0817n
 trf_delay_012=   4.9492p  targ=   4.0351n   trig=   4.0301n
 tfr_delay_012=   4.5759p  targ=   6.0864n   trig=   6.0819n
 trf_delay_111=   2.0152p  targ=   2.0884n   trig=   2.0864n
 tfr_delay_111=   3.8685p  targ=  37.8735p   trig=  34.0049p
 trf_delay_112=   2.0372p  targ=   6.0885n   trig=   6.0864n
 tfr_delay_112=   3.4695p  targ=   4.0386n   trig=   4.0351n
 trf_delay_211=   2.0802p  targ=  39.9537p   trig=  37.8735p
 tfr_delay_211=   2.2999p  targ=   2.0907n   trig=   2.0884n
 trf_delay_212=   1.6704p  targ=   4.0402n   trig=   4.0386n
 tfr_delay_212=   2.3857p  targ=   6.0909n   trig=   6.0885n
 trf_delay_021=   1.7684p  targ=  34.0049p   trig=  32.2366p
 tfr_delay_021=   4.6890p  targ=   4.0864n   trig=   4.0817n
 trf_delay_121=   2.0136p  targ=   4.0884n   trig=   4.0864n
 tfr_delay_121=   3.8685p  targ=  37.8735p   trig=  34.0049p
 trf_delay_221=   2.0802p  targ=  39.9537p   trig=  37.8735p
 tfr_delay_221=   2.2958p  targ=   4.0907n   trig=   4.0884n
x

        time    voltage      voltage    
                 outin_00     outin_10  
    0.           13.6288u    699.9875m  
   10.00000p     -1.5944m    700.0329m  
   20.00000p     29.6804m    679.1187m  
   30.00000p    268.3826m    475.8484m  
   40.00000p    602.9413m    138.9919m  
   50.00000p    697.1968m     -2.7784m  
   60.00000p    699.9895m      3.7331u  
   70.00000p    699.9846m      2.3900u  
   80.00000p    699.9842m     -2.5876u  
   90.00000p    699.9893m     20.5222u  
  100.00000p    699.9944m     43.6319u  
  110.00000p    699.9920m     33.2641u  
  120.00000p    699.9892m     21.3877u  
  130.00000p    699.9864m      9.5113u  
  140.00000p    699.9837m     -2.3652u  
  150.00000p    699.9809m    -14.2416u  
  160.00000p    699.9812m    -12.8968u  
  170.00000p    699.9825m     -7.7034u  
  180.00000p    699.9837m     -2.5101u  
  190.00000p    699.9850m      2.6833u  
  200.00000p    699.9862m      7.8767u  
  210.00000p    699.9874m     13.0700u  
  220.00000p    699.9887m     18.2634u  
  230.00000p    699.9899m     23.4567u  
  240.00000p    699.9912m     28.6501u  
  250.00000p    699.9924m     33.8435u  
  260.00000p    699.9937m     39.0368u  
  270.00000p    699.9948m     43.8986u  
  280.00000p    699.9941m     41.0195u  
  290.00000p    699.9934m     38.1404u  
  300.00000p    699.9927m     35.2613u  
  310.00000p    699.9920m     32.3822u  
  320.00000p    699.9913m     29.5031u  
  330.00000p    699.9906m     26.6240u  
  340.00000p    699.9899m     23.7449u  
  350.00000p    699.9893m     20.8658u  
  360.00000p    699.9886m     17.9867u  
  370.00000p    699.9879m     15.1077u  
  380.00000p    699.9872m     12.2286u  
  390.00000p    699.9865m      9.3495u  
  400.00000p    699.9858m      6.4704u  
  410.00000p    699.9851m      3.5913u  
  420.00000p    699.9844m    712.2030n  
  430.00000p    699.9837m     -2.1669u  
  440.00000p    699.9830m     -5.0460u  
  450.00000p    699.9823m     -7.9251u  
  460.00000p    699.9816m    -10.8042u  
  470.00000p    699.9809m    -13.6833u  
  480.00000p    699.9802m    -16.5623u  
  490.00000p    699.9806m    -14.9914u  
  500.00000p    699.9810m    -13.3124u  
  510.00000p    699.9814m    -11.6333u  
  520.00000p    699.9818m     -9.9542u  
  530.00000p    699.9822m     -8.2751u  
  540.00000p    699.9826m     -6.5960u  
  550.00000p    699.9830m     -4.9169u  
  560.00000p    699.9834m     -3.2378u  
  570.00000p    699.9838m     -1.5588u  
  580.00000p    699.9842m      0.       
  590.00000p    699.9847m      1.7994u  
  600.00000p    699.9851m      3.4785u  
  610.00000p    699.9855m      5.1576u  
  620.00000p    699.9859m      6.8367u  
  630.00000p    699.9863m      8.5158u  
  640.00000p    699.9867m     10.1948u  
  650.00000p    699.9871m     11.8739u  
  660.00000p    699.9875m     13.5530u  
  670.00000p    699.9879m     15.2321u  
  680.00000p    699.9883m     16.9112u  
  690.00000p    699.9888m     18.5903u  
  700.00000p    699.9892m     20.2693u  
  710.00000p    699.9896m     21.9484u  
  720.00000p    699.9900m     23.6275u  
  730.00000p    699.9904m     25.3066u  
  740.00000p    699.9908m     26.9857u  
  750.00000p    699.9912m     28.6648u  
  760.00000p    699.9916m     30.3439u  
  770.00000p    699.9920m     32.0229u  
  780.00000p    699.9924m     33.7020u  
  790.00000p    699.9929m     35.3811u  
  800.00000p    699.9933m     37.0602u  
  810.00000p    699.9937m     38.7393u  
  820.00000p    699.9941m     40.4184u  
  830.00000p    699.9945m     42.0974u  
  840.00000p    699.9949m     43.7765u  
  850.00000p    699.9943m     41.1082u  
  860.00000p    699.9935m     38.2294u  
  870.00000p    699.9928m     35.3506u  
  880.00000p    699.9921m     32.4718u  
  890.00000p    699.9914m     29.5930u  
  900.00000p    699.9907m     26.7142u  
  910.00000p    699.9900m     23.8354u  
  920.00000p    699.9893m     20.9565u  
  930.00000p    699.9886m     18.0777u  
  940.00000p    699.9879m     15.1989u  
  950.00000p    699.9872m     12.3201u  
  960.00000p    699.9865m      9.4413u  
  970.00000p    699.9858m      6.5625u  
  980.00000p    699.9850m      3.6837u  
  990.00000p    699.9843m    804.8408n  
    1.00000n    699.9836m     -2.0740u  
    1.01000n    699.9829m     -4.9528u  
    1.02000n    699.9822m     -7.8316u  
    1.03000n    699.9815m    -10.7104u  
    1.04000n    699.9808m    -13.5892u  
    1.05000n    699.9801m    -16.4680u  
    1.06000n    609.9733m    563.9266u  
    1.07000n    519.9665m      1.1443m  
    1.08000n    359.7924m     77.9602m  
    1.09000n      9.9907m    669.3841m  
    1.10000n      2.2356m    699.7701m  
    1.11000n     20.1990u    699.9912m  
    1.12000n      9.3898u    699.9848m  
    1.13000n     20.6229u    699.9921m  
    1.14000n     20.7390u    699.9921m  
    1.15000n     17.2122u    699.9898m  
    1.16000n     13.6854u    699.9875m  
    1.17000n     10.1587u    699.9852m  
    1.18000n      6.6319u    699.9829m  
    1.19000n      4.5882u    699.9816m  
    1.20000n      6.1150u    699.9826m  
    1.21000n      7.6417u    699.9836m  
    1.22000n      9.1684u    699.9846m  
    1.23000n     10.6952u    699.9856m  
    1.24000n     12.2219u    699.9866m  
    1.25000n     13.7486u    699.9876m  
    1.26000n     15.2754u    699.9886m  
    1.27000n     16.8021u    699.9896m  
    1.28000n     18.3288u    699.9906m  
    1.29000n     19.8556u    699.9917m  
    1.30000n     21.3823u    699.9927m  
    1.31000n     22.9090u    699.9937m  
    1.32000n     22.3723u    699.9933m  
    1.33000n     21.7122u    699.9929m  
    1.34000n     21.0522u    699.9924m  
    1.35000n     20.3921u    699.9920m  
    1.36000n     19.7321u    699.9916m  
    1.37000n     19.0720u    699.9911m  
    1.38000n     18.4120u    699.9907m  
    1.39000n     17.7519u    699.9903m  
    1.40000n     17.0919u    699.9898m  
    1.41000n     16.4318u    699.9894m  
    1.42000n     15.7718u    699.9889m  
    1.43000n     15.1117u    699.9885m  
    1.44000n     14.4517u    699.9881m  
    1.45000n     13.7916u    699.9876m  
    1.46000n     13.1316u    699.9872m  
    1.47000n     12.4716u    699.9868m  
    1.48000n     11.8115u    699.9863m  
    1.49000n     11.1515u    699.9859m  
    1.50000n     10.4914u    699.9855m  
    1.51000n      9.8314u    699.9850m  
    1.52000n      9.1713u    699.9846m  
    1.53000n      8.5113u    699.9841m  
    1.54000n      7.8512u    699.9837m  
    1.55000n      7.1912u    699.9833m  
    1.56000n      6.5311u    699.9828m  
    1.57000n      5.8711u    699.9824m  
    1.58000n      5.2110u    699.9820m  
    1.59000n      4.5510u    699.9815m  
    1.60000n      4.6049u    699.9816m  
    1.61000n      5.0625u    699.9819m  
    1.62000n      5.5200u    699.9822m  
    1.63000n      5.9776u    699.9825m  
    1.64000n      6.4351u    699.9828m  
    1.65000n      6.8927u    699.9831m  
    1.66000n      7.3502u    699.9834m  
    1.67000n      7.8078u    699.9837m  
    1.68000n      8.2654u    699.9840m  
    1.69000n      8.7229u    699.9843m  
    1.70000n      9.1805u    699.9846m  
    1.71000n      9.6380u    699.9849m  
    1.72000n     10.0956u    699.9852m  
    1.73000n     10.5531u    699.9855m  
    1.74000n     11.0107u    699.9858m  
    1.75000n     11.4682u    699.9861m  
    1.76000n     11.9258u    699.9864m  
    1.77000n     12.3833u    699.9867m  
    1.78000n     12.8409u    699.9870m  
    1.79000n     13.2984u    699.9873m  
    1.80000n     13.7560u    699.9876m  
    1.81000n     14.2136u    699.9879m  
    1.82000n     14.6711u    699.9882m  
    1.83000n     15.1287u    699.9885m  
    1.84000n     15.5862u    699.9888m  
    1.85000n     16.0438u    699.9891m  
    1.86000n     16.5013u    699.9894m  
    1.87000n     16.9589u    699.9897m  
    1.88000n     17.4164u    699.9900m  
    1.89000n     17.8740u    699.9904m  
    1.90000n     18.3315u    699.9907m  
    1.91000n     18.7891u    699.9910m  
    1.92000n     19.2467u    699.9913m  
    1.93000n     19.7042u    699.9916m  
    1.94000n     20.1618u    699.9919m  
    1.95000n     20.6193u    699.9922m  
    1.96000n     21.0769u    699.9925m  
    1.97000n     21.5344u    699.9928m  
    1.98000n     21.9920u    699.9931m  
    1.99000n     22.4495u    699.9934m  
    2.00000n     22.9071u    699.9937m  
    2.01000n     94.0038m    699.3675m  
    2.02000n    187.9847m    698.7414m  
    2.03000n    347.6401m    574.4506m  
    2.04000n    673.9668m     17.3759m  
    2.05000n    697.1243m    123.7203u  
    2.06000n    699.9883m     12.4543u  
    2.07000n    699.9865m     12.3627u  
    2.08000n    699.9882m     14.5401u  
    2.09000n    699.9850m      8.8071u  
    2.10000n    699.9868m     12.9575u  
    2.11000n    699.9875m     14.0003u  
    2.12000n    699.9875m     14.0045u  
    2.13000n    699.9875m     14.0191u  
    2.14000n    699.9875m     14.0061u  
    2.15000n    699.9875m     13.9931u  
    2.16000n    699.9875m     13.9861u  
    2.17000n    699.9875m     13.9922u  
    2.18000n    699.9875m     13.9982u  
    2.19000n    699.9875m     14.0042u  
    2.20000n    699.9875m     14.0103u  
    2.21000n    699.9875m     14.0163u  
    2.22000n    699.9875m     14.0224u  
    2.23000n    699.9875m     14.0201u  
    2.24000n    699.9875m     14.0173u  
    2.25000n    699.9875m     14.0145u  
    2.26000n    699.9875m     14.0117u  
    2.27000n    699.9875m     14.0089u  
    2.28000n    699.9875m     14.0061u  
    2.29000n    699.9875m     14.0032u  
    2.30000n    699.9875m     14.0004u  
    2.31000n    699.9875m     13.9976u  
    2.32000n    699.9875m     13.9948u  
    2.33000n    699.9875m     13.9920u  
    2.34000n    699.9875m     13.9892u  
    2.35000n    699.9875m     13.9863u  
    2.36000n    699.9875m     13.9848u  
    2.37000n    699.9875m     13.9865u  
    2.38000n    699.9875m     13.9881u  
    2.39000n    699.9875m     13.9897u  
    2.40000n    699.9875m     13.9913u  
    2.41000n    699.9875m     13.9930u  
    2.42000n    699.9875m     13.9946u  
    2.43000n    699.9875m     13.9962u  
    2.44000n    699.9875m     13.9978u  
    2.45000n    699.9875m     13.9995u  
    2.46000n    699.9875m     14.0011u  
    2.47000n    699.9875m     14.0027u  
    2.48000n    699.9875m     14.0043u  
    2.49000n    699.9875m     14.0060u  
    2.50000n    699.9875m     14.0076u  
    2.51000n    699.9875m     14.0092u  
    2.52000n    699.9875m     14.0109u  
    2.53000n    699.9875m     14.0125u  
    2.54000n    699.9875m     14.0141u  
    2.55000n    699.9875m     14.0157u  
    2.56000n    699.9875m     14.0174u  
    2.57000n    699.9875m     14.0190u  
    2.58000n    699.9875m     14.0206u  
    2.59000n    699.9875m     14.0222u  
    2.60000n    699.9875m     14.0220u  
    2.61000n    699.9875m     14.0211u  
    2.62000n    699.9875m     14.0201u  
    2.63000n    699.9875m     14.0192u  
    2.64000n    699.9875m     14.0182u  
    2.65000n    699.9875m     14.0172u  
    2.66000n    699.9875m     14.0163u  
    2.67000n    699.9875m     14.0153u  
    2.68000n    699.9875m     14.0144u  
    2.69000n    699.9875m     14.0134u  
    2.70000n    699.9875m     14.0124u  
    2.71000n    699.9875m     14.0115u  
    2.72000n    699.9875m     14.0105u  
    2.73000n    699.9875m     14.0096u  
    2.74000n    699.9875m     14.0086u  
    2.75000n    699.9875m     14.0077u  
    2.76000n    699.9875m     14.0067u  
    2.77000n    699.9875m     14.0057u  
    2.78000n    699.9875m     14.0048u  
    2.79000n    699.9875m     14.0038u  
    2.80000n    699.9875m     14.0029u  
    2.81000n    699.9875m     14.0019u  
    2.82000n    699.9875m     14.0009u  
    2.83000n    699.9875m     14.0000u  
    2.84000n    699.9875m     13.9990u  
    2.85000n    699.9875m     13.9981u  
    2.86000n    699.9875m     13.9971u  
    2.87000n    699.9875m     13.9962u  
    2.88000n    699.9875m     13.9952u  
    2.89000n    699.9875m     13.9942u  
    2.90000n    699.9875m     13.9933u  
    2.91000n    699.9875m     13.9923u  
    2.92000n    699.9875m     13.9914u  
    2.93000n    699.9875m     13.9904u  
    2.94000n    699.9875m     13.9895u  
    2.95000n    699.9875m     13.9885u  
    2.96000n    699.9875m     13.9875u  
    2.97000n    699.9875m     13.9866u  
    2.98000n    699.9875m     13.9856u  
    2.99000n    699.9875m     13.9847u  
    3.00000n    699.9875m     13.9892u  
    3.01000n    699.9875m     13.9958u  
    3.02000n    699.9875m     14.0025u  
    3.03000n    699.9875m     14.0092u  
    3.04000n    699.9875m     14.0159u  
    3.05000n    699.9875m     14.0226u  
    3.06000n    702.4180m     -8.5249u  
    3.07000n    684.9825m      6.8787m  
    3.08000n    435.3141m    231.8284m  
    3.09000n     84.3838m    579.2189m  
    3.10000n      3.5258m    706.0066m  
    3.11000n     27.2039u    699.9980m  
    3.12000n      6.8316u    699.9312m  
    3.13000n     30.6363u    700.0687m  
    3.14000n     14.3771u    699.9970m  
    3.15000n     -1.8821u    699.9254m  
    3.16000n      1.8619u    699.9385m  
    3.17000n     10.6261u    699.9728m  
    3.18000n     19.3904u    700.0071m  
    3.19000n     28.1546u    700.0414m  
    3.20000n     30.9712u    700.0527m  
    3.21000n     27.2219u    700.0388m  
    3.22000n     23.4726u    700.0249m  
    3.23000n     19.7233u    700.0110m  
    3.24000n     15.9740u    699.9971m  
    3.25000n     12.2247u    699.9832m  
    3.26000n      8.4754u    699.9693m  
    3.27000n      4.7261u    699.9554m  
    3.28000n    976.7835n    699.9415m  
    3.29000n     -2.7725u    699.9275m  
    3.30000n     -4.8313u    699.9198m  
    3.31000n     -2.6613u    699.9277m  
    3.32000n      0.         699.9356m  
    3.33000n      1.6786u    699.9434m  
    3.34000n      3.8486u    699.9513m  
    3.35000n      6.0186u    699.9591m  
    3.36000n      8.1885u    699.9670m  
    3.37000n     10.3585u    699.9749m  
    3.38000n     12.5285u    699.9827m  
    3.39000n     14.6984u    699.9906m  
    3.40000n     16.8684u    699.9984m  
    3.41000n     19.0384u    700.0063m  
    3.42000n     21.2083u    700.0142m  
    3.43000n     23.3783u    700.0220m  
    3.44000n     25.5483u    700.0299m  
    3.45000n     27.7182u    700.0377m  
    3.46000n     29.8882u    700.0456m  
    3.47000n     32.0581u    700.0535m  
    3.48000n     32.1004u    700.0537m  
    3.49000n     30.8836u    700.0493m  
    3.50000n     29.6669u    700.0450m  
    3.51000n     28.4501u    700.0406m  
    3.52000n     27.2334u    700.0363m  
    3.53000n     26.0166u    700.0319m  
    3.54000n     24.7999u    700.0276m  
    3.55000n     23.5831u    700.0232m  
    3.56000n     22.3664u    700.0189m  
    3.57000n     21.1496u    700.0145m  
    3.58000n     19.9329u    700.0102m  
    3.59000n     18.7161u    700.0058m  
    3.60000n     17.4994u    700.0015m  
    3.61000n     16.2826u    699.9971m  
    3.62000n     15.0659u    699.9928m  
    3.63000n     13.8491u    699.9884m  
    3.64000n     12.6324u    699.9841m  
    3.65000n     11.4156u    699.9797m  
    3.66000n     10.1989u    699.9754m  
    3.67000n      8.9821u    699.9710m  
    3.68000n      7.7654u    699.9667m  
    3.69000n      6.5486u    699.9623m  
    3.70000n      5.3319u    699.9580m  
    3.71000n      4.1151u    699.9536m  
    3.72000n      2.8984u    699.9493m  
    3.73000n      1.6817u    699.9450m  
    3.74000n      0.         699.9406m  
    3.75000n   -751.8474n    699.9363m  
    3.76000n     -1.9686u    699.9319m  
    3.77000n     -3.1853u    699.9276m  
    3.78000n     -4.4021u    699.9232m  
    3.79000n     -5.3388u    699.9199m  
    3.80000n     -3.5175u    699.9263m  
    3.81000n     -1.6961u    699.9327m  
    3.82000n      0.         699.9392m  
    3.83000n      1.9465u    699.9456m  
    3.84000n      3.7679u    699.9520m  
    3.85000n      5.5892u    699.9584m  
    3.86000n      7.4105u    699.9649m  
    3.87000n      9.2319u    699.9713m  
    3.88000n     11.0532u    699.9777m  
    3.89000n     12.8745u    699.9842m  
    3.90000n     14.6959u    699.9906m  
    3.91000n     16.5172u    699.9970m  
    3.92000n     18.3385u    700.0035m  
    3.93000n     20.1599u    700.0099m  
    3.94000n     21.9812u    700.0163m  
    3.95000n     23.8025u    700.0228m  
    3.96000n     25.6239u    700.0292m  
    3.97000n     27.4452u    700.0356m  
    3.98000n     29.2665u    700.0421m  
    3.99000n     31.0879u    700.0485m  
    4.00000n     32.9092u    700.0549m  
    4.01000n     94.0089m    699.4055m  
    4.02000n    187.9848m    698.7560m  
    4.03000n    346.7638m    621.4662m  
    4.04000n    676.8575m     21.0406m  
    4.05000n    697.1532m    197.9426u  
    4.06000n    699.9884m     12.7916u  
    4.07000n    699.9865m     12.0678u  
    4.08000n    699.9883m     14.7755u  
    4.09000n    699.9848m      7.9141u  
    4.10000n    699.9864m     11.9217u  
    4.11000n    699.9875m     13.9731u  
    4.12000n    699.9875m     13.9827u  
    4.13000n    699.9876m     14.0203u  
    4.14000n    699.9875m     13.9880u  
    4.15000n    699.9875m     13.9557u  
    4.16000n    699.9875m     13.9365u  
    4.17000n    699.9875m     13.9515u  
    4.18000n    699.9875m     13.9666u  
    4.19000n    699.9875m     13.9816u  
    4.20000n    699.9875m     13.9966u  
    4.21000n    699.9876m     14.0116u  
    4.22000n    699.9876m     14.0267u  
    4.23000n    699.9876m     14.0233u  
    4.24000n    699.9876m     14.0163u  
    4.25000n    699.9875m     14.0093u  
    4.26000n    699.9875m     14.0023u  
    4.27000n    699.9875m     13.9953u  
    4.28000n    699.9875m     13.9883u  
    4.29000n    699.9875m     13.9813u  
    4.30000n    699.9875m     13.9743u  
    4.31000n    699.9875m     13.9673u  
    4.32000n    699.9875m     13.9603u  
    4.33000n    699.9875m     13.9532u  
    4.34000n    699.9875m     13.9462u  
    4.35000n    699.9875m     13.9392u  
    4.36000n    699.9875m     13.9329u  
    4.37000n    699.9875m     13.9370u  
    4.38000n    699.9875m     13.9410u  
    4.39000n    699.9875m     13.9451u  
    4.40000n    699.9875m     13.9491u  
    4.41000n    699.9875m     13.9532u  
    4.42000n    699.9875m     13.9572u  
    4.43000n    699.9875m     13.9612u  
    4.44000n    699.9875m     13.9653u  
    4.45000n    699.9875m     13.9693u  
    4.46000n    699.9875m     13.9734u  
    4.47000n    699.9875m     13.9774u  
    4.48000n    699.9875m     13.9814u  
    4.49000n    699.9875m     13.9855u  
    4.50000n    699.9875m     13.9895u  
    4.51000n    699.9875m     13.9936u  
    4.52000n    699.9875m     13.9976u  
    4.53000n    699.9875m     14.0016u  
    4.54000n    699.9875m     14.0057u  
    4.55000n    699.9876m     14.0097u  
    4.56000n    699.9876m     14.0138u  
    4.57000n    699.9876m     14.0178u  
    4.58000n    699.9876m     14.0218u  
    4.59000n    699.9876m     14.0259u  
    4.60000n    699.9876m     14.0284u  
    4.61000n    699.9876m     14.0260u  
    4.62000n    699.9876m     14.0236u  
    4.63000n    699.9876m     14.0212u  
    4.64000n    699.9876m     14.0188u  
    4.65000n    699.9876m     14.0164u  
    4.66000n    699.9876m     14.0140u  
    4.67000n    699.9876m     14.0116u  
    4.68000n    699.9875m     14.0092u  
    4.69000n    699.9875m     14.0068u  
    4.70000n    699.9875m     14.0044u  
    4.71000n    699.9875m     14.0020u  
    4.72000n    699.9875m     13.9996u  
    4.73000n    699.9875m     13.9972u  
    4.74000n    699.9875m     13.9948u  
    4.75000n    699.9875m     13.9924u  
    4.76000n    699.9875m     13.9899u  
    4.77000n    699.9875m     13.9875u  
    4.78000n    699.9875m     13.9851u  
    4.79000n    699.9875m     13.9827u  
    4.80000n    699.9875m     13.9803u  
    4.81000n    699.9875m     13.9779u  
    4.82000n    699.9875m     13.9755u  
    4.83000n    699.9875m     13.9731u  
    4.84000n    699.9875m     13.9707u  
    4.85000n    699.9875m     13.9683u  
    4.86000n    699.9875m     13.9659u  
    4.87000n    699.9875m     13.9635u  
    4.88000n    699.9875m     13.9611u  
    4.89000n    699.9875m     13.9587u  
    4.90000n    699.9875m     13.9563u  
    4.91000n    699.9875m     13.9539u  
    4.92000n    699.9875m     13.9515u  
    4.93000n    699.9875m     13.9491u  
    4.94000n    699.9875m     13.9467u  
    4.95000n    699.9875m     13.9443u  
    4.96000n    699.9875m     13.9418u  
    4.97000n    699.9875m     13.9394u  
    4.98000n    699.9875m     13.9370u  
    4.99000n    699.9875m     13.9346u  
    5.00000n    699.9875m     13.9370u  
    5.01000n    699.9875m     13.9554u  
    5.02000n    699.9875m     13.9737u  
    5.03000n    699.9875m     13.9920u  
    5.04000n    699.9876m     14.0103u  
    5.05000n    699.9876m     14.0287u  
    5.06000n    702.4221m     -7.3203u  
    5.07000n    681.3690m   -627.0579u  
    5.08000n    422.9202m   -148.2766u  
    5.09000n     25.6461m    635.2744m  
    5.10000n      2.4732m    700.3682m  
    5.11000n     13.1953u    699.9840m  
    5.12000n     14.3722u    699.9884m  
    5.13000n     13.8976u    699.9878m  
    5.14000n     13.4230u    699.9872m  
    5.15000n     13.2354u    699.9869m  
    5.16000n     13.4466u    699.9870m  
    5.17000n     13.6578u    699.9871m  
    5.18000n     13.8690u    699.9871m  
    5.19000n     14.0802u    699.9872m  
    5.20000n     14.2914u    699.9873m  
    5.21000n     14.2569u    699.9873m  
    5.22000n     14.1705u    699.9873m  
    5.23000n     14.0842u    699.9873m  
    5.24000n     13.9979u    699.9873m  
    5.25000n     13.9116u    699.9873m  
    5.26000n     13.8253u    699.9873m  
    5.27000n     13.7389u    699.9873m  
    5.28000n     13.6526u    699.9873m  
    5.29000n     13.5663u    699.9873m  
    5.30000n     13.4800u    699.9873m  
    5.31000n     13.3936u    699.9873m  
    5.32000n     13.3073u    699.9873m  
    5.33000n     13.2210u    699.9873m  
    5.34000n     13.2063u    699.9873m  
    5.35000n     13.2519u    699.9873m  
    5.36000n     13.2975u    699.9873m  
    5.37000n     13.3431u    699.9873m  
    5.38000n     13.3888u    699.9873m  
    5.39000n     13.4344u    699.9873m  
    5.40000n     13.4800u    699.9873m  
    5.41000n     13.5256u    699.9872m  
    5.42000n     13.5712u    699.9872m  
    5.43000n     13.6168u    699.9872m  
    5.44000n     13.6624u    699.9872m  
    5.45000n     13.7081u    699.9872m  
    5.46000n     13.7537u    699.9872m  
    5.47000n     13.7993u    699.9872m  
    5.48000n     13.8449u    699.9872m  
    5.49000n     13.8905u    699.9872m  
    5.50000n     13.9361u    699.9872m  
    5.51000n     13.9818u    699.9872m  
    5.52000n     14.0274u    699.9872m  
    5.53000n     14.0730u    699.9872m  
    5.54000n     14.1186u    699.9872m  
    5.55000n     14.1642u    699.9872m  
    5.56000n     14.2098u    699.9872m  
    5.57000n     14.2554u    699.9872m  
    5.58000n     14.3011u    699.9871m  
    5.59000n     14.2905u    699.9872m  
    5.60000n     14.2637u    699.9872m  
    5.61000n     14.2369u    699.9872m  
    5.62000n     14.2101u    699.9872m  
    5.63000n     14.1833u    699.9872m  
    5.64000n     14.1565u    699.9872m  
    5.65000n     14.1297u    699.9872m  
    5.66000n     14.1028u    699.9872m  
    5.67000n     14.0760u    699.9872m  
    5.68000n     14.0492u    699.9872m  
    5.69000n     14.0224u    699.9872m  
    5.70000n     13.9956u    699.9872m  
    5.71000n     13.9688u    699.9872m  
    5.72000n     13.9420u    699.9872m  
    5.73000n     13.9151u    699.9872m  
    5.74000n     13.8883u    699.9872m  
    5.75000n     13.8615u    699.9872m  
    5.76000n     13.8347u    699.9873m  
    5.77000n     13.8079u    699.9873m  
    5.78000n     13.7811u    699.9873m  
    5.79000n     13.7543u    699.9873m  
    5.80000n     13.7274u    699.9873m  
    5.81000n     13.7006u    699.9873m  
    5.82000n     13.6738u    699.9873m  
    5.83000n     13.6470u    699.9873m  
    5.84000n     13.6202u    699.9873m  
    5.85000n     13.5934u    699.9873m  
    5.86000n     13.5666u    699.9873m  
    5.87000n     13.5398u    699.9873m  
    5.88000n     13.5129u    699.9873m  
    5.89000n     13.4861u    699.9873m  
    5.90000n     13.4593u    699.9873m  
    5.91000n     13.4325u    699.9873m  
    5.92000n     13.4057u    699.9874m  
    5.93000n     13.3789u    699.9874m  
    5.94000n     13.3521u    699.9874m  
    5.95000n     13.3252u    699.9874m  
    5.96000n     13.2984u    699.9874m  
    5.97000n     13.2716u    699.9874m  
    5.98000n     13.2448u    699.9874m  
    5.99000n     13.2180u    699.9874m  
    6.00000n     13.1912u    699.9874m  
    6.01000n     93.9972m    699.3637m  
    6.02000n    187.9812m    698.7400m  
    6.03000n    347.6760m    572.3549m  
    6.04000n    675.5738m     19.3900m  
    6.05000n    697.0445m    -69.7922u  
    6.06000n    699.9942m      7.0721u  
    6.07000n    699.9747m     30.3768u  
    6.08000n    699.9893m     13.5342u  
    6.09000n    699.9908m      2.9662u  
    6.10000n    699.9866m     11.5439u  
    6.11000n    699.9875m     13.6155u  
    6.12000n    699.9875m     13.6452u  
    6.13000n    699.9875m     13.6520u  
    6.14000n    699.9875m     13.6188u  
    6.15000n    699.9875m     13.5959u  
    6.16000n    699.9875m     13.6118u  
    6.17000n    699.9875m     13.6277u  
    6.18000n    699.9875m     13.6436u  
    6.19000n    699.9875m     13.6596u  
    6.20000n    699.9875m     13.6682u  
    6.21000n    699.9875m     13.6609u  
    6.22000n    699.9875m     13.6535u  
    6.23000n    699.9875m     13.6461u  
    6.24000n    699.9875m     13.6387u  
    6.25000n    699.9875m     13.6313u  
    6.26000n    699.9875m     13.6239u  
    6.27000n    699.9875m     13.6165u  
    6.28000n    699.9875m     13.6092u  
    6.29000n    699.9875m     13.6018u  
    6.30000n    699.9875m     13.5944u  
    6.31000n    699.9875m     13.5965u  
    6.32000n    699.9875m     13.6009u  
    6.33000n    699.9875m     13.6052u  
    6.34000n    699.9875m     13.6096u  
    6.35000n    699.9875m     13.6140u  
    6.36000n    699.9875m     13.6183u  
    6.37000n    699.9875m     13.6227u  
    6.38000n    699.9875m     13.6271u  
    6.39000n    699.9875m     13.6314u  
    6.40000n    699.9875m     13.6358u  
    6.41000n    699.9875m     13.6402u  
    6.42000n    699.9875m     13.6446u  
    6.43000n    699.9875m     13.6489u  
    6.44000n    699.9875m     13.6533u  
    6.45000n    699.9875m     13.6577u  
    6.46000n    699.9875m     13.6620u  
    6.47000n    699.9875m     13.6664u  
    6.48000n    699.9875m     13.6701u  
    6.49000n    699.9875m     13.6675u  
    6.50000n    699.9875m     13.6650u  
    6.51000n    699.9875m     13.6625u  
    6.52000n    699.9875m     13.6600u  
    6.53000n    699.9875m     13.6574u  
    6.54000n    699.9875m     13.6549u  
    6.55000n    699.9875m     13.6524u  
    6.56000n    699.9875m     13.6498u  
    6.57000n    699.9875m     13.6473u  
    6.58000n    699.9875m     13.6448u  
    6.59000n    699.9875m     13.6422u  
    6.60000n    699.9875m     13.6397u  
    6.61000n    699.9875m     13.6372u  
    6.62000n    699.9875m     13.6346u  
    6.63000n    699.9875m     13.6321u  
    6.64000n    699.9875m     13.6296u  
    6.65000n    699.9875m     13.6270u  
    6.66000n    699.9875m     13.6245u  
    6.67000n    699.9875m     13.6220u  
    6.68000n    699.9875m     13.6194u  
    6.69000n    699.9875m     13.6169u  
    6.70000n    699.9875m     13.6144u  
    6.71000n    699.9875m     13.6118u  
    6.72000n    699.9875m     13.6093u  
    6.73000n    699.9875m     13.6068u  
    6.74000n    699.9875m     13.6042u  
    6.75000n    699.9875m     13.6017u  
    6.76000n    699.9875m     13.5992u  
    6.77000n    699.9875m     13.5966u  
    6.78000n    699.9875m     13.5941u  
    6.79000n    699.9875m     13.5948u  
    6.80000n    699.9875m     13.5977u  
    6.81000n    699.9875m     13.6006u  
    6.82000n    699.9875m     13.6035u  
    6.83000n    699.9875m     13.6064u  
    6.84000n    699.9875m     13.6093u  
    6.85000n    699.9875m     13.6122u  
    6.86000n    699.9875m     13.6151u  
    6.87000n    699.9875m     13.6180u  
    6.88000n    699.9875m     13.6209u  
    6.89000n    699.9875m     13.6238u  
    6.90000n    699.9875m     13.6267u  
    6.91000n    699.9875m     13.6296u  
    6.92000n    699.9875m     13.6325u  
    6.93000n    699.9875m     13.6354u  
    6.94000n    699.9875m     13.6383u  
    6.95000n    699.9875m     13.6412u  
    6.96000n    699.9875m     13.6441u  
    6.97000n    699.9875m     13.6470u  
    6.98000n    699.9875m     13.6499u  
    6.99000n    699.9875m     13.6528u  
    7.00000n    699.9875m     13.6557u  
    7.01000n    699.9875m     13.6586u  
    7.02000n    699.9875m     13.6615u  
    7.03000n    699.9875m     13.6644u  
    7.04000n    699.9875m     13.6673u  
    7.05000n    699.9875m     13.6702u  
    7.06000n    609.9774m    582.1534u  
    7.07000n    519.9673m      1.1506m  
    7.08000n    356.5091m     97.7694m  
    7.09000n     10.8171m    668.5349m  
    7.10000n      2.2628m    699.8401m  
    7.11000n      9.0958u    699.9768m  
    7.12000n     17.1955u    699.9952m  
    7.13000n     17.5259u    699.9968m  
    7.14000n     13.8585u    699.9883m  
    7.15000n     10.1912u    699.9799m  
    7.16000n      7.4175u    699.9735m  
    7.17000n      8.9012u    699.9768m  
    7.18000n     10.3848u    699.9801m  
    7.19000n     11.8685u    699.9835m  
    7.20000n     13.3522u    699.9868m  
    7.21000n     14.8358u    699.9901m  
    7.22000n     16.3195u    699.9935m  
    7.23000n     17.8032u    699.9968m  
    7.24000n     19.2869u    700.0001m  
    7.25000n     19.7762u    700.0012m  
    7.26000n     19.2012u    700.0000m  
    7.27000n     18.6261u    699.9987m  
    7.28000n     18.0511u    699.9974m  
    7.29000n     17.4760u    699.9961m  
    7.30000n     16.9009u    699.9948m  
    7.31000n     16.3259u    699.9936m  
    7.32000n     15.7508u    699.9923m  
    7.33000n     15.1758u    699.9910m  
    7.34000n     14.6007u    699.9897m  
    7.35000n     14.0257u    699.9885m  
    7.36000n     13.4506u    699.9872m  
    7.37000n     12.8755u    699.9859m  
    7.38000n     12.3005u    699.9846m  
    7.39000n     11.7254u    699.9833m  
    7.40000n     11.1504u    699.9821m  
    7.41000n     10.5753u    699.9808m  
    7.42000n     10.0003u    699.9795m  
    7.43000n      9.4252u    699.9782m  
    7.44000n      8.8502u    699.9770m  
    7.45000n      8.2751u    699.9757m  
    7.46000n      7.7000u    699.9744m  
    7.47000n      7.2718u    699.9735m  
    7.48000n      7.5919u    699.9742m  
    7.49000n      7.9121u    699.9749m  
    7.50000n      8.2323u    699.9756m  
    7.51000n      8.5525u    699.9763m  
    7.52000n      8.8727u    699.9770m  
    7.53000n      9.1928u    699.9777m  
    7.54000n      9.5130u    699.9784m  
    7.55000n      9.8332u    699.9791m  
    7.56000n     10.1534u    699.9798m  
    7.57000n     10.4735u    699.9805m  
    7.58000n     10.7937u    699.9812m  
    7.59000n     11.1139u    699.9820m  
    7.60000n     11.4341u    699.9827m  
    7.61000n     11.7542u    699.9834m  
    7.62000n     12.0744u    699.9841m  
    7.63000n     12.3946u    699.9848m  
    7.64000n     12.7148u    699.9855m  
    7.65000n     13.0349u    699.9862m  
    7.66000n     13.3551u    699.9869m  
    7.67000n     13.6753u    699.9876m  
    7.68000n     13.9955u    699.9883m  
    7.69000n     14.3156u    699.9890m  
    7.70000n     14.6358u    699.9897m  
    7.71000n     14.9560u    699.9904m  
    7.72000n     15.2762u    699.9912m  
    7.73000n     15.5964u    699.9919m  
    7.74000n     15.9165u    699.9926m  
    7.75000n     16.2367u    699.9933m  
    7.76000n     16.5569u    699.9940m  
    7.77000n     16.8771u    699.9947m  
    7.78000n     17.1972u    699.9954m  
    7.79000n     17.5174u    699.9961m  
    7.80000n     17.8376u    699.9968m  
    7.81000n     18.1578u    699.9975m  
    7.82000n     18.4779u    699.9982m  
    7.83000n     18.7981u    699.9989m  
    7.84000n     19.1183u    699.9997m  
    7.85000n     19.4385u    700.0004m  
    7.86000n     19.7586u    700.0011m  
    7.87000n     19.8673u    700.0013m  
    7.88000n     18.8973u    699.9992m  
    7.89000n     17.9274u    699.9970m  
    7.90000n     16.9575u    699.9949m  
    7.91000n     15.9875u    699.9928m  
    7.92000n     15.0176u    699.9907m  
    7.93000n     14.0476u    699.9885m  
    7.94000n     13.0777u    699.9864m  
    7.95000n     12.1077u    699.9843m  
    7.96000n     11.1378u    699.9821m  
    7.97000n     10.1678u    699.9800m  
    7.98000n      9.1979u    699.9779m  
    7.99000n      8.2280u    699.9757m  
    8.00000n      7.2580u    699.9736m  
y
x

        time    voltage      voltage    
                 outin_10     outin_20  
    0.          699.9875m     13.6328u  
   10.00000p    700.0329m     16.1373u  
   20.00000p    679.1187m     13.2699m  
   30.00000p    475.8484m    140.8036m  
   40.00000p    138.9919m    455.1555m  
   50.00000p     -2.7784m    694.9684m  
   60.00000p      3.7331u    699.9679m  
   70.00000p      2.3900u    699.9691m  
   80.00000p     -2.5876u    699.9603m  
   90.00000p     20.5222u    699.9988m  
  100.00000p     43.6319u    700.0373m  
  110.00000p     33.2641u    700.0201m  
  120.00000p     21.3877u    700.0004m  
  130.00000p      9.5113u    699.9808m  
  140.00000p     -2.3652u    699.9611m  
  150.00000p    -14.2416u    699.9414m  
  160.00000p    -12.8968u    699.9436m  
  170.00000p     -7.7034u    699.9522m  
  180.00000p     -2.5101u    699.9608m  
  190.00000p      2.6833u    699.9694m  
  200.00000p      7.8767u    699.9780m  
  210.00000p     13.0700u    699.9866m  
  220.00000p     18.2634u    699.9951m  
  230.00000p     23.4567u    700.0037m  
  240.00000p     28.6501u    700.0123m  
  250.00000p     33.8435u    700.0209m  
  260.00000p     39.0368u    700.0295m  
  270.00000p     43.8986u    700.0375m  
  280.00000p     41.0195u    700.0328m  
  290.00000p     38.1404u    700.0280m  
  300.00000p     35.2613u    700.0233m  
  310.00000p     32.3822u    700.0185m  
  320.00000p     29.5031u    700.0138m  
  330.00000p     26.6240u    700.0090m  
  340.00000p     23.7449u    700.0042m  
  350.00000p     20.8658u    699.9995m  
  360.00000p     17.9867u    699.9947m  
  370.00000p     15.1077u    699.9900m  
  380.00000p     12.2286u    699.9852m  
  390.00000p      9.3495u    699.9805m  
  400.00000p      6.4704u    699.9757m  
  410.00000p      3.5913u    699.9709m  
  420.00000p    712.2030n    699.9662m  
  430.00000p     -2.1669u    699.9614m  
  440.00000p     -5.0460u    699.9567m  
  450.00000p     -7.9251u    699.9519m  
  460.00000p    -10.8042u    699.9472m  
  470.00000p    -13.6833u    699.9424m  
  480.00000p    -16.5623u    699.9376m  
  490.00000p    -14.9914u    699.9402m  
  500.00000p    -13.3124u    699.9430m  
  510.00000p    -11.6333u    699.9458m  
  520.00000p     -9.9542u    699.9486m  
  530.00000p     -8.2751u    699.9513m  
  540.00000p     -6.5960u    699.9541m  
  550.00000p     -4.9169u    699.9569m  
  560.00000p     -3.2378u    699.9596m  
  570.00000p     -1.5588u    699.9624m  
  580.00000p      0.         699.9652m  
  590.00000p      1.7994u    699.9680m  
  600.00000p      3.4785u    699.9707m  
  610.00000p      5.1576u    699.9735m  
  620.00000p      6.8367u    699.9763m  
  630.00000p      8.5158u    699.9791m  
  640.00000p     10.1948u    699.9818m  
  650.00000p     11.8739u    699.9846m  
  660.00000p     13.5530u    699.9874m  
  670.00000p     15.2321u    699.9901m  
  680.00000p     16.9112u    699.9929m  
  690.00000p     18.5903u    699.9957m  
  700.00000p     20.2693u    699.9985m  
  710.00000p     21.9484u    700.0012m  
  720.00000p     23.6275u    700.0040m  
  730.00000p     25.3066u    700.0068m  
  740.00000p     26.9857u    700.0096m  
  750.00000p     28.6648u    700.0123m  
  760.00000p     30.3439u    700.0151m  
  770.00000p     32.0229u    700.0179m  
  780.00000p     33.7020u    700.0207m  
  790.00000p     35.3811u    700.0234m  
  800.00000p     37.0602u    700.0262m  
  810.00000p     38.7393u    700.0290m  
  820.00000p     40.4184u    700.0317m  
  830.00000p     42.0974u    700.0345m  
  840.00000p     43.7765u    700.0373m  
  850.00000p     41.1082u    700.0329m  
  860.00000p     38.2294u    700.0281m  
  870.00000p     35.3506u    700.0234m  
  880.00000p     32.4718u    700.0186m  
  890.00000p     29.5930u    700.0139m  
  900.00000p     26.7142u    700.0091m  
  910.00000p     23.8354u    700.0044m  
  920.00000p     20.9565u    699.9996m  
  930.00000p     18.0777u    699.9949m  
  940.00000p     15.1989u    699.9901m  
  950.00000p     12.3201u    699.9854m  
  960.00000p      9.4413u    699.9806m  
  970.00000p      6.5625u    699.9759m  
  980.00000p      3.6837u    699.9711m  
  990.00000p    804.8408n    699.9664m  
    1.00000n     -2.0740u    699.9616m  
    1.01000n     -4.9528u    699.9569m  
    1.02000n     -7.8316u    699.9521m  
    1.03000n    -10.7104u    699.9474m  
    1.04000n    -13.5892u    699.9426m  
    1.05000n    -16.4680u    699.9378m  
    1.06000n    563.9266u    699.9620m  
    1.07000n      1.1443m    699.9861m  
    1.08000n     77.9602m    704.4521m  
    1.09000n    669.3841m    151.5445m  
    1.10000n    699.7701m   -452.4701u  
    1.11000n    699.9912m     11.5023u  
    1.12000n    699.9848m     13.6459u  
    1.13000n    699.9921m     14.8166u  
    1.14000n    699.9921m     14.6639u  
    1.15000n    699.9898m     14.0775u  
    1.16000n    699.9875m     13.4912u  
    1.17000n    699.9852m     12.9048u  
    1.18000n    699.9829m     12.3184u  
    1.19000n    699.9816m     11.9886u  
    1.20000n    699.9826m     12.2763u  
    1.21000n    699.9836m     12.5641u  
    1.22000n    699.9846m     12.8518u  
    1.23000n    699.9856m     13.1396u  
    1.24000n    699.9866m     13.4273u  
    1.25000n    699.9876m     13.7151u  
    1.26000n    699.9886m     14.0028u  
    1.27000n    699.9896m     14.2906u  
    1.28000n    699.9906m     14.5783u  
    1.29000n    699.9917m     14.8661u  
    1.30000n    699.9927m     15.1538u  
    1.31000n    699.9937m     15.4416u  
    1.32000n    699.9933m     15.3343u  
    1.33000n    699.9929m     15.2035u  
    1.34000n    699.9924m     15.0726u  
    1.35000n    699.9920m     14.9417u  
    1.36000n    699.9916m     14.8109u  
    1.37000n    699.9911m     14.6800u  
    1.38000n    699.9907m     14.5492u  
    1.39000n    699.9903m     14.4183u  
    1.40000n    699.9898m     14.2875u  
    1.41000n    699.9894m     14.1566u  
    1.42000n    699.9889m     14.0257u  
    1.43000n    699.9885m     13.8949u  
    1.44000n    699.9881m     13.7640u  
    1.45000n    699.9876m     13.6332u  
    1.46000n    699.9872m     13.5023u  
    1.47000n    699.9868m     13.3714u  
    1.48000n    699.9863m     13.2406u  
    1.49000n    699.9859m     13.1097u  
    1.50000n    699.9855m     12.9789u  
    1.51000n    699.9850m     12.8480u  
    1.52000n    699.9846m     12.7171u  
    1.53000n    699.9841m     12.5863u  
    1.54000n    699.9837m     12.4554u  
    1.55000n    699.9833m     12.3246u  
    1.56000n    699.9828m     12.1937u  
    1.57000n    699.9824m     12.0629u  
    1.58000n    699.9820m     11.9320u  
    1.59000n    699.9815m     11.8011u  
    1.60000n    699.9816m     11.8133u  
    1.61000n    699.9819m     11.9063u  
    1.62000n    699.9822m     11.9993u  
    1.63000n    699.9825m     12.0924u  
    1.64000n    699.9828m     12.1854u  
    1.65000n    699.9831m     12.2784u  
    1.66000n    699.9834m     12.3714u  
    1.67000n    699.9837m     12.4644u  
    1.68000n    699.9840m     12.5575u  
    1.69000n    699.9843m     12.6505u  
    1.70000n    699.9846m     12.7435u  
    1.71000n    699.9849m     12.8365u  
    1.72000n    699.9852m     12.9295u  
    1.73000n    699.9855m     13.0226u  
    1.74000n    699.9858m     13.1156u  
    1.75000n    699.9861m     13.2086u  
    1.76000n    699.9864m     13.3016u  
    1.77000n    699.9867m     13.3946u  
    1.78000n    699.9870m     13.4877u  
    1.79000n    699.9873m     13.5807u  
    1.80000n    699.9876m     13.6737u  
    1.81000n    699.9879m     13.7667u  
    1.82000n    699.9882m     13.8597u  
    1.83000n    699.9885m     13.9528u  
    1.84000n    699.9888m     14.0458u  
    1.85000n    699.9891m     14.1388u  
    1.86000n    699.9894m     14.2318u  
    1.87000n    699.9897m     14.3248u  
    1.88000n    699.9900m     14.4179u  
    1.89000n    699.9904m     14.5109u  
    1.90000n    699.9907m     14.6039u  
    1.91000n    699.9910m     14.6969u  
    1.92000n    699.9913m     14.7899u  
    1.93000n    699.9916m     14.8830u  
    1.94000n    699.9919m     14.9760u  
    1.95000n    699.9922m     15.0690u  
    1.96000n    699.9925m     15.1620u  
    1.97000n    699.9928m     15.2550u  
    1.98000n    699.9931m     15.3481u  
    1.99000n    699.9934m     15.4411u  
    2.00000n    699.9937m     15.5341u  
    2.01000n    699.3675m     10.9058u  
    2.02000n    698.7414m      6.2775u  
    2.03000n    574.4506m     -4.1351m  
    2.04000n     17.3759m    529.3204m  
    2.05000n    123.7203u    700.2536m  
    2.06000n     12.4543u    699.9898m  
    2.07000n     12.3627u    699.9871m  
    2.08000n     14.5401u    699.9884m  
    2.09000n      8.8071u    699.9860m  
    2.10000n     12.9575u    699.9856m  
    2.11000n     14.0003u    699.9875m  
    2.12000n     14.0045u    699.9875m  
    2.13000n     14.0191u    699.9876m  
    2.14000n     14.0061u    699.9875m  
    2.15000n     13.9931u    699.9875m  
    2.16000n     13.9861u    699.9875m  
    2.17000n     13.9922u    699.9875m  
    2.18000n     13.9982u    699.9875m  
    2.19000n     14.0042u    699.9875m  
    2.20000n     14.0103u    699.9875m  
    2.21000n     14.0163u    699.9876m  
    2.22000n     14.0224u    699.9876m  
    2.23000n     14.0201u    699.9876m  
    2.24000n     14.0173u    699.9876m  
    2.25000n     14.0145u    699.9876m  
    2.26000n     14.0117u    699.9875m  
    2.27000n     14.0089u    699.9875m  
    2.28000n     14.0061u    699.9875m  
    2.29000n     14.0032u    699.9875m  
    2.30000n     14.0004u    699.9875m  
    2.31000n     13.9976u    699.9875m  
    2.32000n     13.9948u    699.9875m  
    2.33000n     13.9920u    699.9875m  
    2.34000n     13.9892u    699.9875m  
    2.35000n     13.9863u    699.9875m  
    2.36000n     13.9848u    699.9875m  
    2.37000n     13.9865u    699.9875m  
    2.38000n     13.9881u    699.9875m  
    2.39000n     13.9897u    699.9875m  
    2.40000n     13.9913u    699.9875m  
    2.41000n     13.9930u    699.9875m  
    2.42000n     13.9946u    699.9875m  
    2.43000n     13.9962u    699.9875m  
    2.44000n     13.9978u    699.9875m  
    2.45000n     13.9995u    699.9875m  
    2.46000n     14.0011u    699.9875m  
[...]
    3.68000n    699.9875m     13.6328u  
    3.69000n    699.9875m     13.6328u  
    3.70000n    699.9875m     13.6328u  
    3.71000n    699.9875m     13.6328u  
    3.72000n    699.9875m     13.6328u  
    3.73000n    699.9875m     13.6328u  
    3.74000n    699.9875m     13.6328u  
    3.75000n    699.9875m     13.6328u  
    3.76000n    699.9875m     13.6328u  
    3.77000n    699.9875m     13.6328u  
    3.78000n    699.9875m     13.6328u  
    3.79000n    699.9875m     13.6328u  
    3.80000n    699.9875m     13.6328u  
    3.81000n    699.9875m     13.6328u  
    3.82000n    699.9875m     13.6328u  
    3.83000n    699.9875m     13.6328u  
    3.84000n    699.9875m     13.6328u  
    3.85000n    699.9875m     13.6328u  
    3.86000n    699.9875m     13.6328u  
    3.87000n    699.9875m     13.6328u  
    3.88000n    699.9875m     13.6328u  
    3.89000n    699.9875m     13.6328u  
    3.90000n    699.9875m     13.6328u  
    3.91000n    699.9875m     13.6328u  
    3.92000n    699.9875m     13.6328u  
    3.93000n    699.9875m     13.6328u  
    3.94000n    699.9875m     13.6328u  
    3.95000n    699.9875m     13.6328u  
    3.96000n    699.9875m     13.6328u  
    3.97000n    699.9875m     13.6328u  
    3.98000n    699.9875m     13.6328u  
    3.99000n    699.9875m     13.6328u  
    4.00000n    699.9875m     13.6328u  
    4.01000n    699.9875m     13.6328u  
    4.02000n    699.9875m     13.6328u  
    4.03000n    699.9875m     13.6328u  
    4.04000n    699.9875m     13.6328u  
    4.05000n    699.9875m     13.6328u  
    4.06000n    699.9887m     12.7024u  
    4.07000n    699.9342m     13.5523u  
    4.08000n    703.4183m    158.0691u  
    4.09000n    238.6627m    280.9249m  
    4.10000n    957.3486u    703.7165m  
    4.11000n     20.2620u    700.0012m  
    4.12000n     12.2200u    699.9843m  
    4.13000n    -26.6116u    699.9217m  
    4.14000n      6.1987u    699.9758m  
    4.15000n     39.0091u    700.0298m  
    4.16000n     58.5112u    700.0619m  
    4.17000n     43.3397u    700.0367m  
    4.18000n     28.1682u    700.0115m  
    4.19000n     12.9966u    699.9863m  
    4.20000n     -2.1749u    699.9611m  
    4.21000n    -17.3464u    699.9359m  
    4.22000n    -32.5180u    699.9107m  
    4.23000n    -29.1509u    699.9164m  
    4.24000n    -22.0954u    699.9281m  
    4.25000n    -15.0398u    699.9399m  
    4.26000n     -7.9843u    699.9516m  
    4.27000n   -928.7196n    699.9634m  
    4.28000n      6.1268u    699.9752m  
    4.29000n     13.1824u    699.9869m  
    4.30000n     20.2379u    699.9987m  
    4.31000n     27.2935u    700.0104m  
    4.32000n     34.3490u    700.0222m  
    4.33000n     41.4046u    700.0340m  
    4.34000n     48.4601u    700.0457m  
    4.35000n     55.5157u    700.0575m  
    4.36000n     61.8421u    700.0680m  
    4.37000n     57.7790u    700.0612m  
    4.38000n     53.7159u    700.0545m  
    4.39000n     49.6529u    700.0477m  
    4.40000n     45.5898u    700.0409m  
    4.41000n     41.5267u    700.0341m  
    4.42000n     37.4636u    700.0273m  
    4.43000n     33.4006u    700.0205m  
    4.44000n     29.3375u    700.0137m  
    4.45000n     25.2744u    700.0070m  
    4.46000n     21.2114u    700.0002m  
    4.47000n     17.1483u    699.9934m  
    4.48000n     13.0852u    699.9866m  
    4.49000n      9.0222u    699.9798m  
    4.50000n      4.9591u    699.9730m  
    4.51000n    896.0356n    699.9663m  
    4.52000n     -3.1670u    699.9595m  
    4.53000n     -7.2301u    699.9527m  
    4.54000n    -11.2932u    699.9459m  
    4.55000n    -15.3562u    699.9391m  
    4.56000n    -19.4193u    699.9323m  
    4.57000n    -23.4824u    699.9255m  
    4.58000n    -27.5454u    699.9188m  
    4.59000n    -31.6085u    699.9120m  
    4.60000n    -34.1737u    699.9077m  
    4.61000n    -31.7571u    699.9117m  
    4.62000n    -29.3404u    699.9158m  
    4.63000n    -26.9238u    699.9198m  
    4.64000n    -24.5072u    699.9239m  
    4.65000n    -22.0906u    699.9279m  
    4.66000n    -19.6740u    699.9319m  
    4.67000n    -17.2574u    699.9360m  
    4.68000n    -14.8408u    699.9400m  
    4.69000n    -12.4241u    699.9441m  
    4.70000n    -10.0075u    699.9481m  
    4.71000n     -7.5909u    699.9521m  
    4.72000n     -5.1743u    699.9562m  
    4.73000n     -2.7577u    699.9602m  
    4.74000n      0.         699.9642m  
    4.75000n      2.0756u    699.9683m  
    4.76000n      4.4922u    699.9723m  
    4.77000n      6.9088u    699.9764m  
    4.78000n      9.3254u    699.9804m  
    4.79000n     11.7420u    699.9844m  
    4.80000n     14.1586u    699.9885m  
    4.81000n     16.5752u    699.9925m  
    4.82000n     18.9919u    699.9966m  
    4.83000n     21.4085u    700.0006m  
    4.84000n     23.8251u    700.0046m  
    4.85000n     26.2417u    700.0087m  
    4.86000n     28.6583u    700.0127m  
    4.87000n     31.0749u    700.0168m  
    4.88000n     33.4916u    700.0208m  
    4.89000n     35.9082u    700.0248m  
    4.90000n     38.3248u    700.0289m  
    4.91000n     40.7414u    700.0329m  
    4.92000n     43.1580u    700.0370m  
    4.93000n     45.5746u    700.0410m  
    4.94000n     47.9912u    700.0450m  
    4.95000n     50.4079u    700.0491m  
    4.96000n     52.8245u    700.0531m  
    4.97000n     55.2411u    700.0572m  
    4.98000n     57.6577u    700.0612m  
    4.99000n     60.0743u    700.0652m  
    5.00000n     57.6854u    700.0612m  
    5.01000n     39.3139u    700.0304m  
    5.02000n     20.9423u    699.9996m  
    5.03000n      2.5708u    699.9688m  
    5.04000n    -15.8007u    699.9380m  
    5.05000n    -34.1722u    699.9072m  
    5.06000n     14.2316u    699.9883m  
    5.07000n     13.1175u    699.9869m  
    5.08000n     13.6252u    699.9876m  
    5.09000n     13.6373u    699.9876m  
    5.10000n     13.6332u    699.9876m  
    5.11000n     13.6328u    699.9876m  
    5.12000n     13.6328u    699.9876m  
    5.13000n     13.6328u    699.9876m  
    5.14000n     13.6328u    699.9876m  
    5.15000n     13.6328u    699.9876m  
    5.16000n     13.6328u    699.9876m  
    5.17000n     13.6328u    699.9876m  
    5.18000n     13.6328u    699.9876m  
    5.19000n     13.6328u    699.9876m  
    5.20000n     13.6328u    699.9876m  
    5.21000n     13.6328u    699.9876m  
    5.22000n     13.6328u    699.9876m  
    5.23000n     13.6328u    699.9876m  
    5.24000n     13.6328u    699.9876m  
    5.25000n     13.6328u    699.9876m  
    5.26000n     13.6328u    699.9876m  
    5.27000n     13.6328u    699.9876m  
    5.28000n     13.6328u    699.9876m  
    5.29000n     13.6328u    699.9876m  
    5.30000n     13.6328u    699.9876m  
    5.31000n     13.6328u    699.9876m  
    5.32000n     13.6328u    699.9876m  
    5.33000n     13.6328u    699.9876m  
    5.34000n     13.6328u    699.9876m  
    5.35000n     13.6328u    699.9876m  
    5.36000n     13.6328u    699.9876m  
    5.37000n     13.6328u    699.9876m  
    5.38000n     13.6328u    699.9876m  
    5.39000n     13.6328u    699.9876m  
    5.40000n     13.6328u    699.9876m  
    5.41000n     13.6328u    699.9876m  
    5.42000n     13.6328u    699.9876m  
    5.43000n     13.6328u    699.9876m  
    5.44000n     13.6328u    699.9876m  
    5.45000n     13.6328u    699.9876m  
    5.46000n     13.6328u    699.9876m  
    5.47000n     13.6328u    699.9876m  
    5.48000n     13.6328u    699.9876m  
    5.49000n     13.6328u    699.9876m  
    5.50000n     13.6328u    699.9876m  
    5.51000n     13.6328u    699.9876m  
    5.52000n     13.6328u    699.9876m  
    5.53000n     13.6328u    699.9876m  
    5.54000n     13.6328u    699.9876m  
    5.55000n     13.6328u    699.9876m  
    5.56000n     13.6328u    699.9876m  
    5.57000n     13.6328u    699.9876m  
    5.58000n     13.6328u    699.9876m  
    5.59000n     13.6328u    699.9876m  
    5.60000n     13.6328u    699.9876m  
    5.61000n     13.6328u    699.9876m  
    5.62000n     13.6328u    699.9876m  
    5.63000n     13.6328u    699.9876m  
    5.64000n     13.6328u    699.9876m  
    5.65000n     13.6328u    699.9876m  
    5.66000n     13.6328u    699.9876m  
    5.67000n     13.6328u    699.9876m  
    5.68000n     13.6328u    699.9876m  
    5.69000n     13.6328u    699.9876m  
    5.70000n     13.6328u    699.9876m  
    5.71000n     13.6328u    699.9876m  
    5.72000n     13.6328u    699.9876m  
    5.73000n     13.6328u    699.9876m  
    5.74000n     13.6328u    699.9876m  
    5.75000n     13.6328u    699.9876m  
    5.76000n     13.6328u    699.9876m  
    5.77000n     13.6328u    699.9876m  
    5.78000n     13.6328u    699.9876m  
    5.79000n     13.6328u    699.9876m  
    5.80000n     13.6328u    699.9876m  
    5.81000n     13.6328u    699.9876m  
    5.82000n     13.6328u    699.9876m  
    5.83000n     13.6328u    699.9876m  
    5.84000n     13.6328u    699.9876m  
    5.85000n     13.6328u    699.9876m  
    5.86000n     13.6328u    699.9876m  
    5.87000n     13.6328u    699.9876m  
    5.88000n     13.6328u    699.9876m  
    5.89000n     13.6328u    699.9876m  
    5.90000n     13.6328u    699.9876m  
    5.91000n     13.6328u    699.9876m  
    5.92000n     13.6328u    699.9876m  
    5.93000n     13.6328u    699.9876m  
    5.94000n     13.6328u    699.9876m  
    5.95000n     13.6328u    699.9876m  
    5.96000n     13.6328u    699.9876m  
    5.97000n     13.6328u    699.9876m  
    5.98000n     13.6328u    699.9876m  
    5.99000n     13.6328u    699.9876m  
    6.00000n     13.6328u    699.9876m  
    6.01000n     13.6328u    699.9876m  
    6.02000n     13.6328u    699.9876m  
    6.03000n     13.6328u    699.9876m  
    6.04000n     13.6328u    699.9876m  
    6.05000n     13.6328u    699.9876m  
    6.06000n     13.6328u    699.9876m  
    6.07000n     13.6328u    699.9876m  
    6.08000n     13.6328u    699.9876m  
    6.09000n     13.6328u    699.9876m  
    6.10000n     13.6328u    699.9876m  
    6.11000n     13.6328u    699.9876m  
    6.12000n     13.6328u    699.9876m  
    6.13000n     13.6328u    699.9876m  
    6.14000n     13.6328u    699.9876m  
    6.15000n     13.6328u    699.9876m  
    6.16000n     13.6328u    699.9876m  
    6.17000n     13.6328u    699.9876m  
    6.18000n     13.6328u    699.9876m  
    6.19000n     13.6328u    699.9876m  
    6.20000n     13.6328u    699.9876m  
    6.21000n     13.6328u    699.9876m  
    6.22000n     13.6328u    699.9876m  
    6.23000n     13.6328u    699.9876m  
    6.24000n     13.6328u    699.9876m  
    6.25000n     13.6328u    699.9876m  
    6.26000n     13.6328u    699.9876m  
    6.27000n     13.6328u    699.9876m  
    6.28000n     13.6328u    699.9876m  
    6.29000n     13.6328u    699.9876m  
    6.30000n     13.6328u    699.9876m  
    6.31000n     13.6328u    699.9876m  
    6.32000n     13.6328u    699.9876m  
    6.33000n     13.6328u    699.9876m  
    6.34000n     13.6328u    699.9876m  
    6.35000n     13.6328u    699.9876m  
    6.36000n     13.6328u    699.9876m  
    6.37000n     13.6328u    699.9876m  
    6.38000n     13.6328u    699.9876m  
    6.39000n     13.6328u    699.9876m  
    6.40000n     13.6328u    699.9876m  
    6.41000n     13.6328u    699.9876m  
    6.42000n     13.6328u    699.9876m  
    6.43000n     13.6328u    699.9876m  
    6.44000n     13.6328u    699.9876m  
    6.45000n     13.6328u    699.9876m  
    6.46000n     13.6328u    699.9876m  
    6.47000n     13.6328u    699.9876m  
    6.48000n     13.6328u    699.9876m  
    6.49000n     13.6328u    699.9876m  
    6.50000n     13.6328u    699.9876m  
    6.51000n     13.6328u    699.9876m  
    6.52000n     13.6328u    699.9876m  
    6.53000n     13.6328u    699.9876m  
    6.54000n     13.6328u    699.9876m  
    6.55000n     13.6328u    699.9876m  
    6.56000n     13.6328u    699.9876m  
    6.57000n     13.6328u    699.9876m  
    6.58000n     13.6328u    699.9876m  
    6.59000n     13.6328u    699.9876m  
    6.60000n     13.6328u    699.9876m  
    6.61000n     13.6328u    699.9876m  
    6.62000n     13.6328u    699.9876m  
    6.63000n     13.6328u    699.9876m  
    6.64000n     13.6328u    699.9876m  
    6.65000n     13.6328u    699.9876m  
    6.66000n     13.6328u    699.9876m  
    6.67000n     13.6328u    699.9876m  
    6.68000n     13.6328u    699.9876m  
    6.69000n     13.6328u    699.9876m  
    6.70000n     13.6328u    699.9876m  
    6.71000n     13.6328u    699.9876m  
    6.72000n     13.6328u    699.9876m  
    6.73000n     13.6328u    699.9876m  
    6.74000n     13.6328u    699.9876m  
    6.75000n     13.6328u    699.9876m  
    6.76000n     13.6328u    699.9876m  
    6.77000n     13.6328u    699.9876m  
    6.78000n     13.6328u    699.9876m  
    6.79000n     13.6328u    699.9876m  
    6.80000n     13.6328u    699.9876m  
    6.81000n     13.6328u    699.9876m  
    6.82000n     13.6328u    699.9876m  
    6.83000n     13.6328u    699.9876m  
    6.84000n     13.6328u    699.9876m  
    6.85000n     13.6328u    699.9876m  
    6.86000n     13.6328u    699.9876m  
    6.87000n     13.6328u    699.9876m  
    6.88000n     13.6328u    699.9876m  
    6.89000n     13.6328u    699.9876m  
    6.90000n     13.6328u    699.9876m  
    6.91000n     13.6328u    699.9876m  
    6.92000n     13.6328u    699.9876m  
    6.93000n     13.6328u    699.9876m  
    6.94000n     13.6328u    699.9876m  
    6.95000n     13.6328u    699.9876m  
    6.96000n     13.6328u    699.9876m  
    6.97000n     13.6328u    699.9876m  
    6.98000n     13.6328u    699.9876m  
    6.99000n     13.6328u    699.9876m  
    7.00000n     13.6328u    699.9876m  
    7.01000n     13.6328u    699.9876m  
    7.02000n     13.6328u    699.9876m  
    7.03000n     13.6328u    699.9876m  
    7.04000n     13.6328u    699.9876m  
    7.05000n     13.6328u    699.9876m  
    7.06000n     13.6328u    699.9876m  
    7.07000n     13.6328u    699.9876m  
    7.08000n     13.6328u    699.9876m  
    7.09000n     13.6328u    699.9876m  
    7.10000n     13.6328u    699.9876m  
    7.11000n     13.6328u    699.9876m  
    7.12000n     13.6328u    699.9876m  
    7.13000n     13.6328u    699.9876m  
    7.14000n     13.6328u    699.9876m  
    7.15000n     13.6328u    699.9876m  
    7.16000n     13.6328u    699.9876m  
    7.17000n     13.6328u    699.9876m  
    7.18000n     13.6328u    699.9876m  
    7.19000n     13.6328u    699.9876m  
    7.20000n     13.6328u    699.9876m  
    7.21000n     13.6328u    699.9876m  
    7.22000n     13.6328u    699.9876m  
    7.23000n     13.6328u    699.9876m  
    7.24000n     13.6328u    699.9876m  
    7.25000n     13.6328u    699.9876m  
    7.26000n     13.6328u    699.9876m  
    7.27000n     13.6328u    699.9876m  
    7.28000n     13.6328u    699.9876m  
    7.29000n     13.6328u    699.9876m  
    7.30000n     13.6328u    699.9876m  
    7.31000n     13.6328u    699.9876m  
    7.32000n     13.6328u    699.9876m  
    7.33000n     13.6328u    699.9876m  
    7.34000n     13.6328u    699.9876m  
    7.35000n     13.6328u    699.9876m  
    7.36000n     13.6328u    699.9876m  
    7.37000n     13.6328u    699.9876m  
    7.38000n     13.6328u    699.9876m  
    7.39000n     13.6328u    699.9876m  
    7.40000n     13.6328u    699.9876m  
    7.41000n     13.6328u    699.9876m  
    7.42000n     13.6328u    699.9876m  
    7.43000n     13.6328u    699.9876m  
    7.44000n     13.6328u    699.9876m  
    7.45000n     13.6328u    699.9876m  
    7.46000n     13.6328u    699.9876m  
    7.47000n     13.6328u    699.9876m  
    7.48000n     13.6328u    699.9876m  
    7.49000n     13.6328u    699.9876m  
    7.50000n     13.6328u    699.9876m  
    7.51000n     13.6328u    699.9876m  
    7.52000n     13.6328u    699.9876m  
    7.53000n     13.6328u    699.9876m  
    7.54000n     13.6328u    699.9876m  
    7.55000n     13.6328u    699.9876m  
    7.56000n     13.6328u    699.9876m  
    7.57000n     13.6328u    699.9876m  
    7.58000n     13.6328u    699.9876m  
    7.59000n     13.6328u    699.9876m  
    7.60000n     13.6328u    699.9876m  
    7.61000n     13.6328u    699.9876m  
    7.62000n     13.6328u    699.9876m  
    7.63000n     13.6328u    699.9876m  
    7.64000n     13.6328u    699.9876m  
    7.65000n     13.6328u    699.9876m  
    7.66000n     13.6328u    699.9876m  
    7.67000n     13.6328u    699.9876m  
    7.68000n     13.6328u    699.9876m  
    7.69000n     13.6328u    699.9876m  
    7.70000n     13.6328u    699.9876m  
    7.71000n     13.6328u    699.9876m  
    7.72000n     13.6328u    699.9876m  
    7.73000n     13.6328u    699.9876m  
    7.74000n     13.6328u    699.9876m  
    7.75000n     13.6328u    699.9876m  
    7.76000n     13.6328u    699.9876m  
    7.77000n     13.6328u    699.9876m  
    7.78000n     13.6328u    699.9876m  
    7.79000n     13.6328u    699.9876m  
    7.80000n     13.6328u    699.9876m  
    7.81000n     13.6328u    699.9876m  
    7.82000n     13.6328u    699.9876m  
    7.83000n     13.6328u    699.9876m  
    7.84000n     13.6328u    699.9876m  
    7.85000n     13.6328u    699.9876m  
    7.86000n     13.6328u    699.9876m  
    7.87000n     13.6328u    699.9876m  
    7.88000n     13.6328u    699.9876m  
    7.89000n     13.6328u    699.9876m  
    7.90000n     13.6328u    699.9876m  
    7.91000n     13.6328u    699.9876m  
    7.92000n     13.6328u    699.9876m  
    7.93000n     13.6328u    699.9876m  
    7.94000n     13.6328u    699.9876m  
    7.95000n     13.6328u    699.9876m  
    7.96000n     13.6328u    699.9876m  
    7.97000n     13.6328u    699.9876m  
    7.98000n     13.6328u    699.9876m  
    7.99000n     13.6328u    699.9876m  
    8.00000n     13.6328u    699.9876m  
y
 inv_avg_power00=  47.6347n  from=   0.          to=   8.0000n
 peakpower00=   6.0918u    at=   5.0820n
             from=   0.         to=   8.0000n
 power_avg= 317.3538n  from=   0.          to=   8.0000n
 avg_power=-273.4009n  from=   0.          to=   8.0000n

          ***** job concluded
1****** HSPICE -- F-2011.09-SP2 64-BIT (Feb 27 2012) linux ******               
 ******  
 $this uut was automatically generated by:

  ******  job statistics summary tnom=  25.000 temp=  25.000 *****
  
  
 ******  Machine Information  ******
 CPU:
 model name	: Intel(R) Xeon(R) CPU E5-2650 v4 @ 2.20GHz
 cpu MHz	: 2630.718
  
 OS:
 Linux version 3.10.0-693.17.1.el7.x86_64 (mockbuild@x86-041.build.eng.bos.redha
 t.com) (gcc version 4.8.5 20150623 (Red Hat 4.8.5-16) (GCC) ) #1 SMP Sun Jan 14
  10:36:03 EST 2018


  ******  HSPICE Threads Information  ******

  Command Line Threads Count :     1
  Available CPU Count        :    24
  Actual Threads Count       :     1


  ******  Circuit Statistics  ******
  # nodes       =      83 # elements   =      34
  # resistors   =       0 # capacitors =       0 # inductors   =       0
  # mutual_inds =       0 # vccs       =       0 # vcvs        =       0
  # cccs        =       0 # ccvs       =       0 # volt_srcs   =       4
  # curr_srcs   =       0 # diodes     =       0 # bjts        =       0
  # jfets       =       0 # mosfets    =      30 # U elements  =       0
  # T elements  =       0 # W elements =       0 # B elements  =       0
  # S elements  =       0 # P elements =       0 # va device   =       0
  # vector_srcs =       0


  ******  Runtime Statistics (seconds)  ******

  analysis           time    # points   tot. iter  conv.iter
  op point           0.03           1         122
  transient          0.11         801        1076         248 rev=        13
  readin             0.01
  errchk             0.00
  setup              0.01
  output             0.01


           peak memory used        135.46 megabytes
           total cpu time            0.17 seconds
           total elapsed time        0.43 seconds
           job started at     18:49:41 09/11/2020
           job ended   at     18:49:42 09/11/2020


 lic: Release hspice token(s) 
