$DATA1 SOURCE='HSPICE' VERSION='F-2011.09-SP2 64-BIT'
.TITLE '$this uut was automatically generated by:'
 power_avg        avg_power        inv_avg_power    peakpower         
 trf_delay_1      tfr_delay_1      trf_delay_2      tfr_delay_2       
 temper           alter#            
  2.714e-07       -2.340e-07        1.453e-07        1.478e-05        
  9.000e-12        4.315e-12        7.659e-12        8.695e-12        
   25.0000        1                 
