***** HSPICE -- F-2011.09-SP2 64-BIT (Feb 27 2012) linux ******
 Input File: ptm7lstp.sp
 lic:
 lic: FLEXlm: v10.8
 lic: USER:   iliabautista         HOSTNAME: itn3.rc.usf.edu
 lic: HOSTID:                      PID:      89293
 lic: Using FLEXlm license file:
 lic: 27000@license0.rc.usf.edu
 lic: Checkout 1 hspice
 lic: License/Maintenance for hspice will expire on 18-jul-2021/2019.06
 lic: 1(in_use)/50(total) FLOATING license(s) on SERVER license0.rc.usf.edu
 lic:
 init: begin read circuit files,  cpu clock=  2.00E-02
       option post     =     2.00
 init: end read circuit files,  cpu clock=  3.00E-02 memory=       155 kb
 init: begin check errors,  cpu clock=  3.00E-02
 **warning**  No DC path to ground from node        0:                outin_30
 init: end check errors,  cpu clock=  3.00E-02 memory=       287 kb
 init: begin setup matrix, pivot=     0 cpu clock=  3.00E-02
       establish matrix -- done,  cpu clock=  3.00E-02 memory=       316 kb
       re-order matrix -- done,  cpu clock=  3.00E-02 memory=       311 kb
 init: end setup matrix,  cpu clock=  3.00E-02 memory=       366 kb
 dcop: begin dcop,  cpu clock=  3.00E-02
 dcop: end dcop,  cpu clock=  5.00E-02 memory=       366 kb  tot_iter=     122
 output: ptm7lstp.mt0
 sweep: tran tran0    begin, stop_t=  4.00E-09 #sweeps= 401 cpu clock=  5.00E-02
 tran: time= 4.7204E-10 tot_iter=      65 conv_iter=      16 cpu clock= 6.00E-02
 tran: time= 8.7204E-10 tot_iter=      69 conv_iter=      18 cpu clock= 6.00E-02
 tran: time= 1.2377E-09 tot_iter=     133 conv_iter=      35 cpu clock= 6.00E-02
 tran: time= 1.7769E-09 tot_iter=     139 conv_iter=      38 cpu clock= 6.00E-02
 tran: time= 2.0000E-09 tot_iter=     143 conv_iter=      40 cpu clock= 6.00E-02
 tran: time= 2.4588E-09 tot_iter=     303 conv_iter=      81 cpu clock= 7.00E-02
 tran: time= 2.8588E-09 tot_iter=     307 conv_iter=      83 cpu clock= 7.00E-02
 tran: time= 3.2009E-09 tot_iter=     366 conv_iter=      99 cpu clock= 8.00E-02
 tran: time= 3.7346E-09 tot_iter=     372 conv_iter=     102 cpu clock= 8.00E-02
 tran: time= 4.0000E-09 tot_iter=     376 conv_iter=     104 cpu clock= 8.00E-02
 sweep: tran tran0    end,  cpu clock=  8.00E-02 memory=       367 kb
>info:         ***** hspice job concluded
 lic: Release hspice token(s)
