 ****** HSPICE -- F-2011.09-SP2 64-BIT (Feb 27 2012) linux ******               
  Copyright (C) 2011 Synopsys, Inc. All Rights Reserved.                        
  Unpublished-rights reserved under US copyright laws.
  This program is protected by law and is subject to the
  terms and conditions of the license agreement from Synopsys.
  Use of this program is your acceptance to be bound by the
  license agreement. HSPICE is the trademark of Synopsys, Inc.
  Input File: ptm7lstp.sp                                                       
  Command line options: ptm7lstp.sp
 lic:  
 lic: FLEXlm: v10.8 
 lic: USER:   iliabautista         HOSTNAME: itn3.rc.usf.edu 
 lic: HOSTID:                      PID:      5113 
 lic: Using FLEXlm license file: 
 lic: 27000@license0.rc.usf.edu 
 lic: Checkout 1 hspice 
 lic: License/Maintenance for hspice will expire on 18-jul-2021/2019.06 
 lic: 1(in_use)/50(total) FLOATING license(s) on SERVER license0.rc.usf.edu 
 lic:   
  **warning** (../modelfiles/lstp/7nfet.pm:4) Model nfet device geometries will not be checked against the limits set by lmin, lmax, nfinmin and nfinmax. To enable this check, add a period(.) to the model name(i.e. enable model selector).
1****** HSPICE -- F-2011.09-SP2 64-BIT (Feb 27 2012) linux ******               
 ******  
 $this uut was automatically generated by:

  ******  circuit name directory
 circuit number to circuit name directory
   number circuitname                     definition         multiplier
        0 main circuit
        1 xinput_0.                       inverter           1.00 
        2 xinput_1.                       inverter           1.00 
        3 xuut_grid.                      uut_grid           1.00 
        4 xoutput_00.                     inverter           1.00 
        5 xoutput_10.                     inverter           1.00 
        6 xinput_0.xpfet.                 pfet               1.00 
        7 xinput_0.xnfet.                 nfet               1.00 
        8 xinput_1.xpfet.                 pfet               1.00 
        9 xinput_1.xnfet.                 nfet               1.00 
       10 xuut_grid.xinverter00.          inverter           1.00 
       11 xuut_grid.xinverter10.          inverter           1.00 
       12 xuut_grid.xinverter01.          inverter           1.00 
       13 xuut_grid.xinverter11.          inverter           1.00 
       14 xoutput_00.xpfet.               pfet               1.00 
       15 xoutput_00.xnfet.               nfet               1.00 
       16 xoutput_10.xpfet.               pfet               1.00 
       17 xoutput_10.xnfet.               nfet               1.00 
       18 xuut_grid.xinverter00.xpfet.    pfet               1.00 
       19 xuut_grid.xinverter00.xnfet.    nfet               1.00 
       20 xuut_grid.xinverter10.xpfet.    pfet               1.00 
       21 xuut_grid.xinverter10.xnfet.    nfet               1.00 
       22 xuut_grid.xinverter01.xpfet.    pfet               1.00 
       23 xuut_grid.xinverter01.xnfet.    nfet               1.00 
       24 xuut_grid.xinverter11.xpfet.    pfet               1.00 
       25 xuut_grid.xinverter11.xnfet.    nfet               1.00 
1****** HSPICE -- F-2011.09-SP2 64-BIT (Feb 27 2012) linux ******               
 ******  
 $this uut was automatically generated by:

  ******  mos   model parameters tnom=  25.000 temp=  25.000 *****
 Model Name: pfet 
 BSIM-MG BULK Model(Level72)
   VERSION = 105.03  
   DEVTYPE = -1 
   BULKMOD = 1  
   COREMOD = 0 
   GEOMOD = 1 
   RDSMOD = 1 
   IGCMOD = 1 
   IGBMOD = 1 
   GIDLMOD = 0 
   IIMOD = 0 
   NQSMOD = 0 
   SHMOD = 0 
   RGATEMOD = 0 
   RGEOMOD = 1 
   CGEOMOD = 2 
   CAPMOD = 0 
   LINT = -2.5e-10 m
   LL =      0 m^(LLN+1)
   LLN =      1 
   DLC =      0 m
   DLBIN =      0 
   LLC =      0 m^(LLN+1)
   EOT = 8.4e-10 m
   TOXP = 1.15e-09 m
   EOTBOX = 1.4e-07 m
   HFIN = 1.8e-08 m
   FECH =      1 
   DELTAW =      0 m
   FECHCV =      1 
   DELTAWCV =      0 m
   NBODY =  1e+22 m^-3
   NSD =  3e+26 m^-3
   PHIG =  4.564 eV
   EPSROX =    3.9 
   EPSRSUB =   11.9 
   EASUB =   4.05 eV
   NI0SUB = 1.1e+16 m^-3
   BG0SUB =   1.12 eV
   NC0SUB = 2.86e+25 m^-3
   NGATE =      0 m^-3
   CIT = 1.3e-05 F/m^2
   CDSC = 0.0252 F/m^2
   CDSCD =  0.007 F/m^2
   CDSCDR =  0.007 
   DVT0 =   0.01 
   DVT1 =   0.69 
   PHIN =   0.05 V
   ETA0 =   0.54 
   ETA0R =   0.54 
   DSUB =    0.9 
   K1RSCE =      0 V^1/2
   LPE0 =  5e-09 m
   DVTSHIFT =      0 
   QMFACTOR =      0 
   QMTCENIV =      0 
   QMTCENCV =      0 
   AQMTCEN =      0 
   BQMTCEN = 1.2e-08 
   ETAQM =   0.54 
   QM0 = 0.001143 
   PQM =   0.66 
   QM0ACC =  0.001 
   PQMACC =   0.66 
   VSAT = 1.53e+05 
   AVSAT =      0 
   BVSAT =  1e-07 
   VSAT1 = 1.53e+05 
   AVSAT1 =      0 
   BVSAT1 =  1e-07 
   DELTAVSAT =      1 
   KSATIV =    0.8 
   MEXP =      3 
   AMEXP =      0 
   BMEXP =      1 
   PTWG =      0 
   APTWG =      0 
   BPTWG =  1e-07 
   AT = -0.00156 
   TMEXP =      0 
   PTWGT =  0.004 
   U0 =   0.04 
   ETAMOB =      2 
   UP =      0 
   LPA =      1 
   UA =    0.3 
   AUA =      0 
   BUA =  1e-07 
   EU =    1.8 
   AEU =      0 
   BEU =  1e-07 
   UD =      0 
   AUD =      0 
   BUD =  5e-08 
   UCS =      0 
   UTE =      0 
   UTL = -0.0015 
   UA1 = 0.001032 
   UD1 =      0 
   UCSTE = -0.00478 
   RDSWMIN =      0 
   RDSW =    100 
   ARDSW =      0 
   BRDSW =  1e-07 
   RSWMIN =      0 
   RSW =      0 
   ARSW =      0 
   BRSW =  1e-07 
   RDWMIN =      0 
   RDW =      0 
   ARDW =      0 
   BRDW =  1e-07 
   PRWG =      0 
   WR =      1 
   PRT =  0.001 
   PDIBL1 =    1.3 
   PDIBL2 = 0.0002 
   DROUT =   1.06 
   PVAG =      1 
   PCLM =    0.2 
   APCLM =      0 
   BPCLM =  1e-07 
   PCLMG =      0 
   VASAT =    0.6 
   PCLMCV =  0.013 
   PCLMGCV =      0 
   VASATCV =    0.2 
   RGEXT =      0 ohm
   RGFIN =  0.001 ohm
   RSHS =      0 ohm
   RSHD =      0 ohm
   HEPI =  8e-09 m
   TSILI =  7e-09 m
   RHOC =  5e-13 ohm/m^2
   RHORSD =      1 ohm/m
   RHOEXT =      1 ohm/m
   CRATIO =    0.5 
   DELTAPRSD =      0 m
   SDTERM = 0 
   LSP = 2.2e-09 m
   LDG =  2e-09 m
   EPSRSP =    3.9 
   TGATE = 7.5e-09 m
   TMASK =      0 m
   ASILIEND =      0 m^2
   ARSDEND =      0 m^2
   PRSDEND =      0 m
   NSDE =  9e+25 m^-3
   RGEOA =      1 
   RGEOB =      0 m^-1
   RGEOC =      0 m^-1
   RGEOD =      0 m^-1
   RGEOE =      0 m^-1
   CGEOA =      1 
   CGEOB =      0 m^-1
   CGEOC =      0 m^-1
   CGEOD =      0 m^-1
   CGEOE =      1 
   AIGBINV = 0.0111 (Fs^2/g)^0.5m^-1
   BIGBINV =   0.03 (Fs^2/g)^0.5m^-1
   CIGBINV =  0.006 V^-1
   EIGBINV =    1.1 V
   NIGBINV =    1.2 
   AIGBACC = 0.0149 
   BIGBACC = 0.000949 
   CIGBACC =  0.075 
   NIGBACC =      3 
   AIGC = 0.0136 (Fs^2/g)^0.5m^-1
   BIGC = 0.00171 (Fs^2/g)^0.5m^-1V^-1
   CIGC =  0.075 V^-1
   NIGC =      1 
   DLCIGS =      0 m
   AIGS = 0.0136 (Fs^2/g)^0.5m^-1
   BIGS = 0.00171 (Fs^2/g)^0.5m^-1V^-1
   CIGS =  0.075 V^-1
   DLCIGD =      0 m
   AIGD = 0.0136 (Fs^2/g)^0.5m^-1
   BIGD = 0.00171 (Fs^2/g)^0.5m^-1V^-1
   CIGD =  0.075 V^-1
   POXEDGE =      1 
   AGIDL = 5.729e-12 ohm^-1
   BGIDL =  3e+08 V/m
   EGIDL =    0.1 V
   AGISL = 5.729e-12 ohm^-1
   BGISL =  3e+08 V/m
   EGISL =    0.1 V
   ALPHA0 =      0 mV^-1
   ALPHA1 =      0 V^-1
   BETA0 =     30 V^-1
   ALPHAII =      0 
   BETAII0 =      0 V^-1
   BETAII1 =      0 
   BETAII2 =    0.1 V
   ESATII =  1e+07 V/m
   LII =  5e-10 V/m
   SII0 =    0.5 V^-1
   SII1 =    0.1 
   SII2 =      0 V
   SIID =      0 V
   EOTACC = 8.4e-10 m
   DELVFBACC =      0 V
   CFS = 2.56e-11 F/m
   CFD = 2.65e-11 F/m
   COVS = 2.5e-11 F/m
   COVD = 2.5e-11 F/m
   CGSO =      0 F/m
   CGDO =      0 F/m
   CGSL =      0 F/m
   CGDL =      0 F/m
   CKAPPAS =    0.6 V
   CKAPPAD =    0.6 V
   CGBO =      0 F/m
   CGBL =      0 F/m
   CKAPPAB =    0.6 V
   CSDESW =      0 F/m
   CJS = 0.0005 F/m^2
   CJD = 0.0005 F/m^2
   CJSWS =  5e-10 F/m
   CJSWD =  5e-10 F/m
   CJSWGS =      0 F/m
   CJSWGD =      0 F/m
   PBS =      1 V
   PBD =      1 V
   PBSWS =      1 V
   PBSWD =      1 V
   PBSWGS =      1 V
   PBSWGD =      1 V
   MJS, =    0.5 
   MJD =    0.5 
   MJSWS =   0.33 
   MJSWD =   0.33 
   MJSWGS =   0.33 
   MJSWGD =   0.33 
   SJS =      0 
   SJD =      0 
   SJSWS =      0 
   SJSWD =      0 
   SJSWGS =      0 
   SJSWGD =      0 
   MJS2 =  0.125 
   MJD2 =  0.125 
   MJSWS2 =   0.33 
   MJSWD2 =   0.33 
   MJSWGS2 =   0.33 
   MJSWGD2 =   0.33 
   JSS = 0.0001 A/m^2
   JSD = 0.0001 A/m^2
   JSWS =      0 A/m
   JSWD =      0 A/m
   JSWGS =      0 A/m
   JSWGD =      0 A/m
   NJS =      1 
   NJD =      1 
   IJTHSFWD =    0.1 A
   IJTHDFWD =    0.1 A
   IJTHSREV =    0.1 A
   IJTHDREV =    0.1 A
   BVS =     10 V
   BVD =     10 V
   XJBVS =      1 
   XJBVD =      1 
   JTSS =      0 A/m^2
   JTSD =      0 A/m^2
   JTSSWS =      0 A/m
   JTSSWD =      0 A/m
   JTSSWGS =      0 A/m
   JTSSWGD =      0 A/m
   JTWEFF =      0 m
   NJTS =     20 
   NJTSD =     20 
   NJTSSW =     20 
   NJTSSWD =     20 
   NJTSSWG =     20 
   NJTSSWGD =     20 
   VTSS =     10 V
   VTSD =     10 V
   VTSSWS =     10 V
   VTSSWD =     10 V
   VTSSWGS =     10 V
   VTSSWGD =     10 V
   LINTIGEN =      0 m
   NTGEN =      1 
   AIGEN =      0 m^-3V^-1
   BIGEN =      0 m^-3V^-3
   XRCRG1 =     12 
   XRCRG2 =      1 
   NSEG = 5 
   EF =      1 
   EM = 4.1e+07 V/m
   NOIA = 6.25e+39 eV^-1s^1-EFm^-3
   NOIB = 3.125e+24 eV^-1s^1-EFm^-1
   NOIC = 8.75e+07 eV^-1s^1-EFm
   NTNOI =      1 
   TNOM =  300.1 K
   TBGASUB = 0.000702 eV/K
   TBGBSUB =   1108 K
   KT1 =      0 V
   KT1L =      0 Vm
   IIT =   -0.5 
   TII =      0 
   TGIDL = -0.0003 K^-1
   IGT =    2.5 
   TCJ =      0 K^-1
   TCJSW =      0 K^-1
   TCJSWG =      0 K^-1
   TPB =      0 K^-1
   TPBSW =      0 K^-1
   TPBSWG =      0 K^-1
   XTIS =      3 
   XTID =      3 
   XTSS =   0.02 
   XTSD =   0.02 
   XTSSWS =   0.02 
   XTSSWD =   0.02 
   XTSSWGS =   0.02 
   XTSSWGD =   0.02 
   TNJTS =      0 
   TNJTSD =      0 
   TNJTSSW =      0 
   TNJTSSWD =      0 
   TNJTSSWG =      0 
   TNJTSSWGD =      0 
   RTH0 =   0.01 ohm
   CTH0 =  1e-05 F
   WTH0 =      0 m
   LNBODY =      0 
   NNBODY =      0 
   PNBODY =      0 
   LPHIG =      0 
   NPHIG =      0 
   PPHIG =      0 
   LNGATE =      0 
   NNGATE =      0 
   PNGATE =      0 
   LCIT =      0 
   NCIT =      0 
   PCIT =      0 
   LCDSC =      0 
   NCDSC =      0 
   PCDSC =      0 
   LCDSCD =      0 
   NCDSCD =      0 
   PCDSCD =      0 
   LCDSCDR =      0 
   NCDSCDR =      0 
   PCDSCDR =      0 
   LDVT0 =      0 
   NDVT0 =      0 
   PDVT0 =      0 
   LDVT1 =      0 
   NDVT1 =      0 
   PDVT1 =      0 
   LPHIN =      0 
   NPHIN =      0 
   PPHIN =      0 
   LETA0 =      0 
   NETA0 =      0 
   PETA0 =      0 
   LETA0R =      0 
   NETA0R =      0 
   PETA0R =      0 
   LDSUB =      0 
   NDSUB =      0 
   PDSUB =      0 
   LK1RSCE =      0 
   NK1RSCE =      0 
   PK1RSCE =      0 
   LLPE0 =      0 
   NLPE0 =      0 
   PLPE0 =      0 
   LQMFACTOR =      0 
   NQMFACTOR =      0 
   PQMFACTOR =      0 
   LQMTCENIV =      0 
   NQMTCENIV =      0 
   PQMTCENIV =      0 
   LQMTCENCV =      0 
   NQMTCENCV =      0 
   PQMTCENCV =      0 
   LVSAT =      0 
   NVSAT =      0 
   PVSAT =      0 
   LKSATIV =      0 
   NKSATIV =      0 
   PKSATIV =      0 
   LMEXP =      0 
   NMEXP =      0 
   PMEXP =      0 
   LPTWG =      0 
   NPTWG =      0 
   PPTWG =      0 
   LTHETASAT =      0 
   NTHETASAT =      0 
   PTHETASAT =      0 
   LU0 =      0 
   NU0 =      0 
   PU0 =      0 
   LUP =      0 
   NUP =      0 
   PUP =      0 
   LUA =      0 
   NUA =      0 
   PUA =      0 
   LEU =      0 
   NEU =      0 
   PEU =      0 
   LUD =      0 
   NUD =      0 
   PUD =      0 
   LUCS =      0 
   NUCS =      0 
   PUCS =      0 
   LPCLM =      0 
   NPCLM =      0 
   PPCLM =      0 
   LPCLMCV =      0 
   NPCLMCV =      0 
   PPCLMCV =      0 
   LRDSW =      0 
   NRDSW =      0 
   PRDSW =      0 
   LRSW =      0 
   NRSW =      0 
   PRSW =      0 
   LRDW =      0 
   NRDW =      0 
   PRDW =      0 
   LPRWG =      0 
   NPRWG =      0 
   PPRWG =      0 
   LWR =      0 
   NWR =      0 
   PWR =      0 
   LPDIBL1 =      0 
   NPDIBL1 =      0 
   PPDIBL1 =      0 
   LPDIBL2 =      0 
   NPDIBL2 =      0 
   PPDIBL2 =      0 
   LDROUT =      0 
   NDROUT =      0 
   PDROUT =      0 
   LPVAG =      0 
   NPVAG =      0 
   PPVAG =      0 
   LAIGBINV =      0 
   NAIGBINV =      0 
   PAIGBINV =      0 
   LBIGBINV =      0 
   NBIGBINV =      0 
   PBIGBINV =      0 
   LCIGBINV =      0 
   NCIGBINV =      0 
   PCIGBINV =      0 
   LEIGBINV =      0 
   NEIGBINV =      0 
   PEIGBINV =      0 
   LNIGBINV =      0 
   NNIGBINV =      0 
   PNIGBINV =      0 
   LAIGC =      0 
   NAIGC =      0 
   PAIGC =      0 
   LBIGC =      0 
   NBIGC =      0 
   PBIGC =      0 
   LCIGC =      0 
   NCIGC =      0 
   PCIGC =      0 
   LNIGC =      0 
   NNIGC =      0 
   PNIGC =      0 
   LAIGS =      0 
   NAIGS =      0 
   PAIGS =      0 
   LBIGS =      0 
   NBIGS =      0 
   PBIGS =      0 
   LCIGS =      0 
   NCIGS =      0 
   PCIGS =      0 
   LAIGD =      0 
   NAIGD =      0 
   PAIGD =      0 
   LBIGD =      0 
   NBIGD =      0 
   PBIGD =      0 
   LCIGD =      0 
   NCIGD =      0 
   PCIGD =      0 
   LPOXEDGE =      0 
   NPOXEDGE =      0 
   PPOXEDGE =      0 
   LAGIDL =      0 
   NAGIDL =      0 
   PAGIDL =      0 
   LBGIDL =      0 
   NBGIDL =      0 
   PBGIDL =      0 
   LEGIDL =      0 
   NEGIDL =      0 
   PEGIDL =      0 
   LAGISL =      0 
   NAGISL =      0 
   PAGISL =      0 
   LBGISL =      0 
   NBGISL =      0 
   PBGISL =      0 
   LEGISL =      0 
   NEGISL =      0 
   PEGISL =      0 
   LALPHA0 =      0 
   NALPHA0 =      0 
   PALPHA0 =      0 
   LALPHA1 =      0 
   NALPHA1 =      0 
   PALPHA1 =      0 
   LBETA0 =      0 
   NBETA0 =      0 
   PBETA0 =      0 
   LALPHAII =      0 
   NALPHAII =      0 
   PALPHAII =      0 
   LBETAII0 =      0 
   NBETAII0 =      0 
   PBETAII0 =      0 
   LBETAII1 =      0 
   NBETAII1 =      0 
   PBETAII1 =      0 
   LBETAII2 =      0 
   NBETAII2 =      0 
   PBETAII2 =      0 
   LESATII =      0 
   NESATII =      0 
   PESATII =      0 
   LLII =      0 
   NLII =      0 
   PLII =      0 
   LSII0 =      0 
   NSII0 =      0 
   PSII0 =      0 
   LSII1 =      0 
   NSII1 =      0 
   PSII1 =      0 
   LSII2 =      0 
   NSII2 =      0 
   PSII2 =      0 
   LSIID =      0 
   NSIID =      0 
   PSIID =      0 
   LCFS =      0 
   NCFS =      0 
   PCFS =      0 
   LCFD =      0 
   NCFD =      0 
   PCFD =      0 
   LCOVS =      0 
   NCOVS =      0 
   PCOVS =      0 
   LCOVD =      0 
   NCOVD =      0 
   PCOVD =      0 
   LCGSL =      0 
   NCGSL =      0 
   PCGSL =      0 
   LCGDL =      0 
   NCGDL =      0 
   PCGDL =      0 
   LCKAPPAS =      0 
   NCKAPPAS =      0 
   PCKAPPAS =      0 
   LCKAPPAD =      0 
   NCKAPPAD =      0 
   PCKAPPAD =      0 
   LCGBL =      0 
   NCGBL =      0 
   PCGBL =      0 
   LCKAPPAB =      0 
   NCKAPPAB =      0 
   PCKAPPAB =      0 
   LNTGEN =      0 
   NNTGEN =      0 
   PNTGEN =      0 
   LAIGEN =      0 
   NAIGEN =      0 
   PAIGEN =      0 
   LBIGEN =      0 
   NBIGEN =      0 
   PBIGEN =      0 
   LXRCRG1 =      0 
   NXRCRG1 =      0 
   PXRCRG1 =      0 
   LXRCRG2 =      0 
   NXRCRG2 =      0 
   PXRCRG2 =      0 
   LINTNOI =      0 
   NINTNOI =      0 
   PINTNOI =      0 
   LUTE =      0 
   NUTE =      0 
   PUTE =      0 
   LUTL =      0 
   NUTL =      0 
   PUTL =      0 
   LUA1 =      0 
   NUA1 =      0 
   PUA1 =      0 
   LUD1 =      0 
   NUD1 =      0 
   PUD1 =      0 
   LUCSTE =      0 
   NUCSTE =      0 
   PUCSTE =      0 
   LPTWGT =      0 
   NPTWGT =      0 
   PPTWGT =      0 
   LAT =      0 
   NAT =      0 
   PAT =      0 
   LSTTHETASAT =      0 
   NSTTHETASAT =      0 
   PSTTHETASAT =      0 
   LPRT =      0 
   NPRT =      0 
   PPRT =      0 
   LIIT =      0 
   NIIT =      0 
   PIIT =      0 
   LTII =      0 
   NTII =      0 
   PTII =      0 
   LTGIDL =      0 
   NTGIDL =      0 
   PTGIDL =      0 
   LIGT =      0 
   NIGT =      0 
   PIGT =      0 
   L = 1.1e-08 m
   D =  4e-08 m
   TFIN = 6.5e-09 m
   FPITCH = 2.2e-08 m
   NF = 1 
   NFIN = 1 
   NGCON = 1 
   ASEO =      0 m^2
   ADEO =      0 m^2
   PSEO =      0 m
   PDEO =      0 m
   ASEJ =      0 m^2
   ADEJ =      0 m^2
   PSEJ =      0 m
   PDEJ =      0 m
   CGSP =      0 F
   CGDP =      0 F
   CDSP =      0 F
   NRS =      0 
   NRD =      0 
   LRSD = 1.1e-08 m
   XL =      0 m
   DELVTRAND =      0 
   U0MULT =      1 
   IDS0MULT =      1 
   Lmin =  1e-08 m
   Lmax =  3e-08 m
   NFINmin = 0 
   NFINmax = 1 
   LVSAT1 =      0 
   NVSAT1 =      0 
   PVSAT1 =      0 
   LETAMOB =      0 
   NETAMOB =      0 
   PETAMOB =      0 
   LPCLMG =      0 
   NPCLMG =      0 
   PPCLMG =      0 
   LVASAT =      0 
   NVASAT =      0 
   PVASAT =      0 
   LAIGBACC =      0 
   NAIGBACC =      0 
   PAIGBACC =      0 
   LBIGBACC =      0 
   NBIGBACC =      0 
   PBIGBACC =      0 
   LCIGBACC =      0 
   NCIGBACC =      0 
   PCIGBACC =      0 
   LNIGBACC =      0 
   NNIGBACC =      0 
   PNIGBACC =      0 
 Model Name: nfet 
 BSIM-MG BULK Model(Level72)
   VERSION = 105.03  
   DEVTYPE = 1 
   BULKMOD = 1  
   COREMOD = 0 
   GEOMOD = 1 
   RDSMOD = 1 
   IGCMOD = 1 
   IGBMOD = 1 
   GIDLMOD = 0 
   IIMOD = 0 
   NQSMOD = 0 
   SHMOD = 0 
   RGATEMOD = 0 
   RGEOMOD = 1 
   CGEOMOD = 2 
   CAPMOD = 0 
   LINT = -2.5e-10 m
   LL =      0 m^(LLN+1)
   LLN =      1 
   DLC =      0 m
   DLBIN =      0 
   LLC =      0 m^(LLN+1)
   EOT = 8.4e-10 m
   TOXP = 1.15e-09 m
   EOTBOX = 1.4e-07 m
   HFIN = 1.8e-08 m
   FECH =      1 
   DELTAW =      0 m
   FECHCV =      1 
   DELTAWCV =      0 m
   NBODY =  1e+22 m^-3
   NSD =  3e+26 m^-3
   PHIG =  4.614 eV
   EPSROX =    3.9 
   EPSRSUB =   11.9 
   EASUB =   4.05 eV
   NI0SUB = 1.1e+16 m^-3
   BG0SUB =   1.12 eV
   NC0SUB = 2.86e+25 m^-3
   NGATE =      0 m^-3
   CIT = 1.3e-05 F/m^2
   CDSC = 0.0252 F/m^2
   CDSCD =  0.007 F/m^2
   CDSCDR =  0.007 
   DVT0 =   0.01 
   DVT1 =   0.69 
   PHIN =   0.05 V
   ETA0 =   0.39 
   ETA0R =   0.39 
   DSUB =    0.9 
   K1RSCE =      0 V^1/2
   LPE0 =  5e-09 m
   DVTSHIFT =      0 
   QMFACTOR =      0 
   QMTCENIV =      0 
   QMTCENCV =      0 
   AQMTCEN =      0 
   BQMTCEN = 1.2e-08 
   ETAQM =   0.54 
   QM0 = 0.001143 
   PQM =   0.66 
   QM0ACC =  0.001 
   PQMACC =   0.66 
   VSAT = 1.6e+05 
   AVSAT =      0 
   BVSAT =  1e-07 
   VSAT1 = 1.6e+05 
   AVSAT1 =      0 
   BVSAT1 =  1e-07 
   DELTAVSAT =      1 
   KSATIV =    0.8 
   MEXP =      3 
   AMEXP =      0 
   BMEXP =      1 
   PTWG =      0 
   APTWG =      0 
   BPTWG =  1e-07 
   AT = -0.00156 
   TMEXP =      0 
   PTWGT =  0.004 
   U0 =  0.065 
   ETAMOB =      2 
   UP =      0 
   LPA =      1 
   UA =    0.3 
   AUA =      0 
   BUA =  1e-07 
   EU =    1.8 
   AEU =      0 
   BEU =  1e-07 
   UD =      0 
   AUD =      0 
   BUD =  5e-08 
   UCS =      0 
   UTE =      0 
   UTL = -0.0015 
   UA1 = 0.001032 
   UD1 =      0 
   UCSTE = -0.00478 
   RDSWMIN =      0 
   RDSW =    100 
   ARDSW =      0 
   BRDSW =  1e-07 
   RSWMIN =      0 
   RSW =      0 
   ARSW =      0 
   BRSW =  1e-07 
   RDWMIN =      0 
   RDW =      0 
   ARDW =      0 
   BRDW =  1e-07 
   PRWG =      0 
   WR =      1 
   PRT =  0.001 
   PDIBL1 =    1.3 
   PDIBL2 = 0.0002 
   DROUT =   1.06 
   PVAG =      1 
   PCLM =    0.2 
   APCLM =      0 
   BPCLM =  1e-07 
   PCLMG =      0 
   VASAT =    0.6 
   PCLMCV =  0.013 
   PCLMGCV =      0 
   VASATCV =    0.2 
   RGEXT =      0 ohm
   RGFIN =  0.001 ohm
   RSHS =      0 ohm
   RSHD =      0 ohm
   HEPI =  8e-09 m
   TSILI =  7e-09 m
   RHOC =  4e-13 ohm/m^2
   RHORSD =      1 ohm/m
   RHOEXT =      1 ohm/m
   CRATIO =    0.5 
   DELTAPRSD =      0 m
   SDTERM = 0 
   LSP = 2.2e-09 m
   LDG =  2e-09 m
   EPSRSP =    3.9 
   TGATE = 7.5e-09 m
   TMASK =      0 m
   ASILIEND =      0 m^2
   ARSDEND =      0 m^2
   PRSDEND =      0 m
   NSDE =  9e+25 m^-3
   RGEOA =      1 
   RGEOB =      0 m^-1
   RGEOC =      0 m^-1
   RGEOD =      0 m^-1
   RGEOE =      0 m^-1
   CGEOA =      1 
   CGEOB =      0 m^-1
   CGEOC =      0 m^-1
   CGEOD =      0 m^-1
   CGEOE =      1 
   AIGBINV = 0.0111 (Fs^2/g)^0.5m^-1
   BIGBINV =   0.03 (Fs^2/g)^0.5m^-1
   CIGBINV =  0.006 V^-1
   EIGBINV =    1.1 V
   NIGBINV =    1.2 
   AIGBACC = 0.0149 
   BIGBACC = 0.000949 
   CIGBACC =  0.075 
   NIGBACC =      3 
   AIGC = 0.0136 (Fs^2/g)^0.5m^-1
   BIGC = 0.00171 (Fs^2/g)^0.5m^-1V^-1
   CIGC =  0.075 V^-1
   NIGC =      1 
   DLCIGS =      0 m
   AIGS = 0.0136 (Fs^2/g)^0.5m^-1
   BIGS = 0.00171 (Fs^2/g)^0.5m^-1V^-1
   CIGS =  0.075 V^-1
   DLCIGD =      0 m
   AIGD = 0.0136 (Fs^2/g)^0.5m^-1
   BIGD = 0.00171 (Fs^2/g)^0.5m^-1V^-1
   CIGD =  0.075 V^-1
   POXEDGE =      1 
   AGIDL = 5.729e-12 ohm^-1
   BGIDL =  3e+08 V/m
   EGIDL =    0.1 V
   AGISL = 5.729e-12 ohm^-1
   BGISL =  3e+08 V/m
   EGISL =    0.1 V
   ALPHA0 =      0 mV^-1
   ALPHA1 =      0 V^-1
   BETA0 =     30 V^-1
   ALPHAII =      0 
   BETAII0 =      0 V^-1
   BETAII1 =      0 
   BETAII2 =    0.1 V
   ESATII =  1e+07 V/m
   LII =  5e-10 V/m
   SII0 =    0.5 V^-1
   SII1 =    0.1 
   SII2 =      0 V
   SIID =      0 V
   EOTACC = 8.4e-10 m
   DELVFBACC =      0 V
   CFS = 2.56e-11 F/m
   CFD = 2.65e-11 F/m
   COVS = 2.5e-11 F/m
   COVD = 2.5e-11 F/m
   CGSO =      0 F/m
   CGDO =      0 F/m
   CGSL =      0 F/m
   CGDL =      0 F/m
   CKAPPAS =    0.6 V
   CKAPPAD =    0.6 V
   CGBO =      0 F/m
   CGBL =      0 F/m
   CKAPPAB =    0.6 V
   CSDESW =      0 F/m
   CJS = 0.0005 F/m^2
   CJD = 0.0005 F/m^2
   CJSWS =  5e-10 F/m
   CJSWD =  5e-10 F/m
   CJSWGS =      0 F/m
   CJSWGD =      0 F/m
   PBS =      1 V
   PBD =      1 V
   PBSWS =      1 V
   PBSWD =      1 V
   PBSWGS =      1 V
   PBSWGD =      1 V
   MJS, =    0.5 
   MJD =    0.5 
   MJSWS =   0.33 
   MJSWD =   0.33 
   MJSWGS =   0.33 
   MJSWGD =   0.33 
   SJS =      0 
   SJD =      0 
   SJSWS =      0 
   SJSWD =      0 
   SJSWGS =      0 
   SJSWGD =      0 
   MJS2 =  0.125 
   MJD2 =  0.125 
   MJSWS2 =   0.33 
   MJSWD2 =   0.33 
   MJSWGS2 =   0.33 
   MJSWGD2 =   0.33 
   JSS = 0.0001 A/m^2
   JSD = 0.0001 A/m^2
   JSWS =      0 A/m
   JSWD =      0 A/m
   JSWGS =      0 A/m
   JSWGD =      0 A/m
   NJS =      1 
   NJD =      1 
   IJTHSFWD =    0.1 A
   IJTHDFWD =    0.1 A
   IJTHSREV =    0.1 A
   IJTHDREV =    0.1 A
   BVS =     10 V
   BVD =     10 V
   XJBVS =      1 
   XJBVD =      1 
   JTSS =      0 A/m^2
   JTSD =      0 A/m^2
   JTSSWS =      0 A/m
   JTSSWD =      0 A/m
   JTSSWGS =      0 A/m
   JTSSWGD =      0 A/m
   JTWEFF =      0 m
   NJTS =     20 
   NJTSD =     20 
   NJTSSW =     20 
   NJTSSWD =     20 
   NJTSSWG =     20 
   NJTSSWGD =     20 
   VTSS =     10 V
   VTSD =     10 V
   VTSSWS =     10 V
   VTSSWD =     10 V
   VTSSWGS =     10 V
   VTSSWGD =     10 V
   LINTIGEN =      0 m
   NTGEN =      1 
   AIGEN =      0 m^-3V^-1
   BIGEN =      0 m^-3V^-3
   XRCRG1 =     12 
   XRCRG2 =      1 
   NSEG = 5 
   EF =      1 
   EM = 4.1e+07 V/m
   NOIA = 6.25e+39 eV^-1s^1-EFm^-3
   NOIB = 3.125e+24 eV^-1s^1-EFm^-1
   NOIC = 8.75e+07 eV^-1s^1-EFm
   NTNOI =      1 
   TNOM =  300.1 K
   TBGASUB = 0.000702 eV/K
   TBGBSUB =   1108 K
   KT1 =      0 V
   KT1L =      0 Vm
   IIT =   -0.5 
   TII =      0 
   TGIDL = -0.0003 K^-1
   IGT =    2.5 
   TCJ =      0 K^-1
   TCJSW =      0 K^-1
   TCJSWG =      0 K^-1
   TPB =      0 K^-1
   TPBSW =      0 K^-1
   TPBSWG =      0 K^-1
   XTIS =      3 
   XTID =      3 
   XTSS =   0.02 
   XTSD =   0.02 
   XTSSWS =   0.02 
   XTSSWD =   0.02 
   XTSSWGS =   0.02 
   XTSSWGD =   0.02 
   TNJTS =      0 
   TNJTSD =      0 
   TNJTSSW =      0 
   TNJTSSWD =      0 
   TNJTSSWG =      0 
   TNJTSSWGD =      0 
   RTH0 =   0.01 ohm
   CTH0 =  1e-05 F
   WTH0 =      0 m
   LNBODY =      0 
   NNBODY =      0 
   PNBODY =      0 
   LPHIG =      0 
   NPHIG =      0 
   PPHIG =      0 
   LNGATE =      0 
   NNGATE =      0 
   PNGATE =      0 
   LCIT =      0 
   NCIT =      0 
   PCIT =      0 
   LCDSC =      0 
   NCDSC =      0 
   PCDSC =      0 
   LCDSCD =      0 
   NCDSCD =      0 
   PCDSCD =      0 
   LCDSCDR =      0 
   NCDSCDR =      0 
   PCDSCDR =      0 
   LDVT0 =      0 
   NDVT0 =      0 
   PDVT0 =      0 
   LDVT1 =      0 
   NDVT1 =      0 
   PDVT1 =      0 
   LPHIN =      0 
   NPHIN =      0 
   PPHIN =      0 
   LETA0 =      0 
   NETA0 =      0 
   PETA0 =      0 
   LETA0R =      0 
   NETA0R =      0 
   PETA0R =      0 
   LDSUB =      0 
   NDSUB =      0 
   PDSUB =      0 
   LK1RSCE =      0 
   NK1RSCE =      0 
   PK1RSCE =      0 
   LLPE0 =      0 
   NLPE0 =      0 
   PLPE0 =      0 
   LQMFACTOR =      0 
   NQMFACTOR =      0 
   PQMFACTOR =      0 
   LQMTCENIV =      0 
   NQMTCENIV =      0 
   PQMTCENIV =      0 
   LQMTCENCV =      0 
   NQMTCENCV =      0 
   PQMTCENCV =      0 
   LVSAT =      0 
   NVSAT =      0 
   PVSAT =      0 
   LKSATIV =      0 
   NKSATIV =      0 
   PKSATIV =      0 
   LMEXP =      0 
   NMEXP =      0 
   PMEXP =      0 
   LPTWG =      0 
   NPTWG =      0 
   PPTWG =      0 
   LTHETASAT =      0 
   NTHETASAT =      0 
   PTHETASAT =      0 
   LU0 =      0 
   NU0 =      0 
   PU0 =      0 
   LUP =      0 
   NUP =      0 
   PUP =      0 
   LUA =      0 
   NUA =      0 
   PUA =      0 
   LEU =      0 
   NEU =      0 
   PEU =      0 
   LUD =      0 
   NUD =      0 
   PUD =      0 
   LUCS =      0 
   NUCS =      0 
   PUCS =      0 
   LPCLM =      0 
   NPCLM =      0 
   PPCLM =      0 
   LPCLMCV =      0 
   NPCLMCV =      0 
   PPCLMCV =      0 
   LRDSW =      0 
   NRDSW =      0 
   PRDSW =      0 
   LRSW =      0 
   NRSW =      0 
   PRSW =      0 
   LRDW =      0 
   NRDW =      0 
   PRDW =      0 
   LPRWG =      0 
   NPRWG =      0 
   PPRWG =      0 
   LWR =      0 
   NWR =      0 
   PWR =      0 
   LPDIBL1 =      0 
   NPDIBL1 =      0 
   PPDIBL1 =      0 
   LPDIBL2 =      0 
   NPDIBL2 =      0 
   PPDIBL2 =      0 
   LDROUT =      0 
   NDROUT =      0 
   PDROUT =      0 
   LPVAG =      0 
   NPVAG =      0 
   PPVAG =      0 
   LAIGBINV =      0 
   NAIGBINV =      0 
   PAIGBINV =      0 
   LBIGBINV =      0 
   NBIGBINV =      0 
   PBIGBINV =      0 
   LCIGBINV =      0 
   NCIGBINV =      0 
   PCIGBINV =      0 
   LEIGBINV =      0 
   NEIGBINV =      0 
   PEIGBINV =      0 
   LNIGBINV =      0 
   NNIGBINV =      0 
   PNIGBINV =      0 
   LAIGC =      0 
   NAIGC =      0 
   PAIGC =      0 
   LBIGC =      0 
   NBIGC =      0 
   PBIGC =      0 
   LCIGC =      0 
   NCIGC =      0 
   PCIGC =      0 
   LNIGC =      0 
   NNIGC =      0 
   PNIGC =      0 
   LAIGS =      0 
   NAIGS =      0 
   PAIGS =      0 
   LBIGS =      0 
   NBIGS =      0 
   PBIGS =      0 
   LCIGS =      0 
   NCIGS =      0 
   PCIGS =      0 
   LAIGD =      0 
   NAIGD =      0 
   PAIGD =      0 
   LBIGD =      0 
   NBIGD =      0 
   PBIGD =      0 
   LCIGD =      0 
   NCIGD =      0 
   PCIGD =      0 
   LPOXEDGE =      0 
   NPOXEDGE =      0 
   PPOXEDGE =      0 
   LAGIDL =      0 
   NAGIDL =      0 
   PAGIDL =      0 
   LBGIDL =      0 
   NBGIDL =      0 
   PBGIDL =      0 
   LEGIDL =      0 
   NEGIDL =      0 
   PEGIDL =      0 
   LAGISL =      0 
   NAGISL =      0 
   PAGISL =      0 
   LBGISL =      0 
   NBGISL =      0 
   PBGISL =      0 
   LEGISL =      0 
   NEGISL =      0 
   PEGISL =      0 
   LALPHA0 =      0 
   NALPHA0 =      0 
   PALPHA0 =      0 
   LALPHA1 =      0 
   NALPHA1 =      0 
   PALPHA1 =      0 
   LBETA0 =      0 
   NBETA0 =      0 
   PBETA0 =      0 
   LALPHAII =      0 
   NALPHAII =      0 
   PALPHAII =      0 
   LBETAII0 =      0 
   NBETAII0 =      0 
   PBETAII0 =      0 
   LBETAII1 =      0 
   NBETAII1 =      0 
   PBETAII1 =      0 
   LBETAII2 =      0 
   NBETAII2 =      0 
   PBETAII2 =      0 
   LESATII =      0 
   NESATII =      0 
   PESATII =      0 
   LLII =      0 
   NLII =      0 
   PLII =      0 
   LSII0 =      0 
   NSII0 =      0 
   PSII0 =      0 
   LSII1 =      0 
   NSII1 =      0 
   PSII1 =      0 
   LSII2 =      0 
   NSII2 =      0 
   PSII2 =      0 
   LSIID =      0 
   NSIID =      0 
   PSIID =      0 
   LCFS =      0 
   NCFS =      0 
   PCFS =      0 
   LCFD =      0 
   NCFD =      0 
   PCFD =      0 
   LCOVS =      0 
   NCOVS =      0 
   PCOVS =      0 
   LCOVD =      0 
   NCOVD =      0 
   PCOVD =      0 
   LCGSL =      0 
   NCGSL =      0 
   PCGSL =      0 
   LCGDL =      0 
   NCGDL =      0 
   PCGDL =      0 
   LCKAPPAS =      0 
   NCKAPPAS =      0 
   PCKAPPAS =      0 
   LCKAPPAD =      0 
   NCKAPPAD =      0 
   PCKAPPAD =      0 
   LCGBL =      0 
   NCGBL =      0 
   PCGBL =      0 
   LCKAPPAB =      0 
   NCKAPPAB =      0 
   PCKAPPAB =      0 
   LNTGEN =      0 
   NNTGEN =      0 
   PNTGEN =      0 
   LAIGEN =      0 
   NAIGEN =      0 
   PAIGEN =      0 
   LBIGEN =      0 
   NBIGEN =      0 
   PBIGEN =      0 
   LXRCRG1 =      0 
   NXRCRG1 =      0 
   PXRCRG1 =      0 
   LXRCRG2 =      0 
   NXRCRG2 =      0 
   PXRCRG2 =      0 
   LINTNOI =      0 
   NINTNOI =      0 
   PINTNOI =      0 
   LUTE =      0 
   NUTE =      0 
   PUTE =      0 
   LUTL =      0 
   NUTL =      0 
   PUTL =      0 
   LUA1 =      0 
   NUA1 =      0 
   PUA1 =      0 
   LUD1 =      0 
   NUD1 =      0 
   PUD1 =      0 
   LUCSTE =      0 
   NUCSTE =      0 
   PUCSTE =      0 
   LPTWGT =      0 
   NPTWGT =      0 
   PPTWGT =      0 
   LAT =      0 
   NAT =      0 
   PAT =      0 
   LSTTHETASAT =      0 
   NSTTHETASAT =      0 
   PSTTHETASAT =      0 
   LPRT =      0 
   NPRT =      0 
   PPRT =      0 
   LIIT =      0 
   NIIT =      0 
   PIIT =      0 
   LTII =      0 
   NTII =      0 
   PTII =      0 
   LTGIDL =      0 
   NTGIDL =      0 
   PTGIDL =      0 
   LIGT =      0 
   NIGT =      0 
   PIGT =      0 
   L = 1.1e-08 m
   D =  4e-08 m
   TFIN = 6.5e-09 m
   FPITCH = 2.2e-08 m
   NF = 1 
   NFIN = 1 
   NGCON = 1 
   ASEO =      0 m^2
   ADEO =      0 m^2
   PSEO =      0 m
   PDEO =      0 m
   ASEJ =      0 m^2
   ADEJ =      0 m^2
   PSEJ =      0 m
   PDEJ =      0 m
   CGSP =      0 F
   CGDP =      0 F
   CDSP =      0 F
   NRS =      0 
   NRD =      0 
   LRSD = 1.1e-08 m
   XL =      0 m
   DELVTRAND =      0 
   U0MULT =      1 
   IDS0MULT =      1 
   Lmin =  1e-08 m
   Lmax =  3e-08 m
   NFINmin = 0 
   NFINmax = 1 
   LVSAT1 =      0 
   NVSAT1 =      0 
   PVSAT1 =      0 
   LETAMOB =      0 
   NETAMOB =      0 
   PETAMOB =      0 
   LPCLMG =      0 
   NPCLMG =      0 
   PPCLMG =      0 
   LVASAT =      0 
   NVASAT =      0 
   PVASAT =      0 
   LAIGBACC =      0 
   NAIGBACC =      0 
   PAIGBACC =      0 
   LBIGBACC =      0 
   NBIGBACC =      0 
   PBIGBACC =      0 
   LCIGBACC =      0 
   NCIGBACC =      0 
   PCIGBACC =      0 
   LNIGBACC =      0 
   NNIGBACC =      0 
   PNIGBACC =      0 
 Model Name: pfet 
 BSIM-MG BULK Model(Level72)
   VERSION = 105.03  
   DEVTYPE = -1 
   BULKMOD = 1  
   COREMOD = 0 
   GEOMOD = 1 
   RDSMOD = 1 
   IGCMOD = 1 
   IGBMOD = 1 
   GIDLMOD = 0 
   IIMOD = 0 
   NQSMOD = 0 
   SHMOD = 0 
   RGATEMOD = 0 
   RGEOMOD = 1 
   CGEOMOD = 2 
   CAPMOD = 0 
   LINT = -2.5e-10 m
   LL =      0 m^(LLN+1)
   LLN =      1 
   DLC =      0 m
   DLBIN =      0 
   LLC =      0 m^(LLN+1)
   EOT = 8.4e-10 m
   TOXP = 1.15e-09 m
   EOTBOX = 1.4e-07 m
   HFIN = 1.8e-08 m
   FECH =      1 
   DELTAW =      0 m
   FECHCV =      1 
   DELTAWCV =      0 m
   NBODY =  1e+22 m^-3
   NSD =  3e+26 m^-3
   PHIG =  4.564 eV
   EPSROX =    3.9 
   EPSRSUB =   11.9 
   EASUB =   4.05 eV
   NI0SUB = 1.1e+16 m^-3
   BG0SUB =   1.12 eV
   NC0SUB = 2.86e+25 m^-3
   NGATE =      0 m^-3
   CIT = 1.3e-05 F/m^2
   CDSC = 0.0252 F/m^2
   CDSCD =  0.007 F/m^2
   CDSCDR =  0.007 
   DVT0 =   0.01 
   DVT1 =   0.69 
   PHIN =   0.05 V
   ETA0 =   0.54 
   ETA0R =   0.54 
   DSUB =    0.9 
   K1RSCE =      0 V^1/2
   LPE0 =  5e-09 m
   DVTSHIFT =      0 
   QMFACTOR =      0 
   QMTCENIV =      0 
   QMTCENCV =      0 
   AQMTCEN =      0 
   BQMTCEN = 1.2e-08 
   ETAQM =   0.54 
   QM0 = 0.001143 
   PQM =   0.66 
   QM0ACC =  0.001 
   PQMACC =   0.66 
   VSAT = 1.53e+05 
   AVSAT =      0 
   BVSAT =  1e-07 
   VSAT1 = 1.53e+05 
   AVSAT1 =      0 
   BVSAT1 =  1e-07 
   DELTAVSAT =      1 
   KSATIV =    0.8 
   MEXP =      3 
   AMEXP =      0 
   BMEXP =      1 
   PTWG =      0 
   APTWG =      0 
   BPTWG =  1e-07 
   AT = -0.00156 
   TMEXP =      0 
   PTWGT =  0.004 
   U0 =   0.04 
   ETAMOB =      2 
   UP =      0 
   LPA =      1 
   UA =    0.3 
   AUA =      0 
   BUA =  1e-07 
   EU =    1.8 
   AEU =      0 
   BEU =  1e-07 
   UD =      0 
   AUD =      0 
   BUD =  5e-08 
   UCS =      0 
   UTE =      0 
   UTL = -0.0015 
   UA1 = 0.001032 
   UD1 =      0 
   UCSTE = -0.00478 
   RDSWMIN =      0 
   RDSW =    100 
   ARDSW =      0 
   BRDSW =  1e-07 
   RSWMIN =      0 
   RSW =      0 
   ARSW =      0 
   BRSW =  1e-07 
   RDWMIN =      0 
   RDW =      0 
   ARDW =      0 
   BRDW =  1e-07 
   PRWG =      0 
   WR =      1 
   PRT =  0.001 
   PDIBL1 =    1.3 
   PDIBL2 = 0.0002 
   DROUT =   1.06 
   PVAG =      1 
   PCLM =    0.2 
   APCLM =      0 
   BPCLM =  1e-07 
   PCLMG =      0 
   VASAT =    0.6 
   PCLMCV =  0.013 
   PCLMGCV =      0 
   VASATCV =    0.2 
   RGEXT =      0 ohm
   RGFIN =  0.001 ohm
   RSHS =      0 ohm
   RSHD =      0 ohm
   HEPI =  8e-09 m
   TSILI =  7e-09 m
   RHOC =  5e-13 ohm/m^2
   RHORSD =      1 ohm/m
   RHOEXT =      1 ohm/m
   CRATIO =    0.5 
   DELTAPRSD =      0 m
   SDTERM = 0 
   LSP = 2.2e-09 m
   LDG =  2e-09 m
   EPSRSP =    3.9 
   TGATE = 7.5e-09 m
   TMASK =      0 m
   ASILIEND =      0 m^2
   ARSDEND =      0 m^2
   PRSDEND =      0 m
   NSDE =  9e+25 m^-3
   RGEOA =      1 
   RGEOB =      0 m^-1
   RGEOC =      0 m^-1
   RGEOD =      0 m^-1
   RGEOE =      0 m^-1
   CGEOA =      1 
   CGEOB =      0 m^-1
   CGEOC =      0 m^-1
   CGEOD =      0 m^-1
   CGEOE =      1 
   AIGBINV = 0.0111 (Fs^2/g)^0.5m^-1
   BIGBINV =   0.03 (Fs^2/g)^0.5m^-1
   CIGBINV =  0.006 V^-1
   EIGBINV =    1.1 V
   NIGBINV =    1.2 
   AIGBACC = 0.0149 
   BIGBACC = 0.000949 
   CIGBACC =  0.075 
   NIGBACC =      3 
   AIGC = 0.0136 (Fs^2/g)^0.5m^-1
   BIGC = 0.00171 (Fs^2/g)^0.5m^-1V^-1
   CIGC =  0.075 V^-1
   NIGC =      1 
   DLCIGS =      0 m
   AIGS = 0.0136 (Fs^2/g)^0.5m^-1
   BIGS = 0.00171 (Fs^2/g)^0.5m^-1V^-1
   CIGS =  0.075 V^-1
   DLCIGD =      0 m
   AIGD = 0.0136 (Fs^2/g)^0.5m^-1
   BIGD = 0.00171 (Fs^2/g)^0.5m^-1V^-1
   CIGD =  0.075 V^-1
   POXEDGE =      1 
   AGIDL = 5.729e-12 ohm^-1
   BGIDL =  3e+08 V/m
   EGIDL =    0.1 V
   AGISL = 5.729e-12 ohm^-1
   BGISL =  3e+08 V/m
   EGISL =    0.1 V
   ALPHA0 =      0 mV^-1
   ALPHA1 =      0 V^-1
   BETA0 =     30 V^-1
   ALPHAII =      0 
   BETAII0 =      0 V^-1
   BETAII1 =      0 
   BETAII2 =    0.1 V
   ESATII =  1e+07 V/m
   LII =  5e-10 V/m
   SII0 =    0.5 V^-1
   SII1 =    0.1 
   SII2 =      0 V
   SIID =      0 V
   EOTACC = 8.4e-10 m
   DELVFBACC =      0 V
   CFS = 2.56e-11 F/m
   CFD = 2.65e-11 F/m
   COVS = 2.5e-11 F/m
   COVD = 2.5e-11 F/m
   CGSO =      0 F/m
   CGDO =      0 F/m
   CGSL =      0 F/m
   CGDL =      0 F/m
   CKAPPAS =    0.6 V
   CKAPPAD =    0.6 V
   CGBO =      0 F/m
   CGBL =      0 F/m
   CKAPPAB =    0.6 V
   CSDESW =      0 F/m
   CJS = 0.0005 F/m^2
   CJD = 0.0005 F/m^2
   CJSWS =  5e-10 F/m
   CJSWD =  5e-10 F/m
   CJSWGS =      0 F/m
   CJSWGD =      0 F/m
   PBS =      1 V
   PBD =      1 V
   PBSWS =      1 V
   PBSWD =      1 V
   PBSWGS =      1 V
   PBSWGD =      1 V
   MJS, =    0.5 
   MJD =    0.5 
   MJSWS =   0.33 
   MJSWD =   0.33 
   MJSWGS =   0.33 
   MJSWGD =   0.33 
   SJS =      0 
   SJD =      0 
   SJSWS =      0 
   SJSWD =      0 
   SJSWGS =      0 
   SJSWGD =      0 
   MJS2 =  0.125 
   MJD2 =  0.125 
   MJSWS2 =   0.33 
   MJSWD2 =   0.33 
   MJSWGS2 =   0.33 
   MJSWGD2 =   0.33 
   JSS = 0.0001 A/m^2
   JSD = 0.0001 A/m^2
   JSWS =      0 A/m
   JSWD =      0 A/m
   JSWGS =      0 A/m
   JSWGD =      0 A/m
   NJS =      1 
   NJD =      1 
   IJTHSFWD =    0.1 A
   IJTHDFWD =    0.1 A
   IJTHSREV =    0.1 A
   IJTHDREV =    0.1 A
   BVS =     10 V
   BVD =     10 V
   XJBVS =      1 
   XJBVD =      1 
   JTSS =      0 A/m^2
   JTSD =      0 A/m^2
   JTSSWS =      0 A/m
   JTSSWD =      0 A/m
   JTSSWGS =      0 A/m
   JTSSWGD =      0 A/m
   JTWEFF =      0 m
   NJTS =     20 
   NJTSD =     20 
   NJTSSW =     20 
   NJTSSWD =     20 
   NJTSSWG =     20 
   NJTSSWGD =     20 
   VTSS =     10 V
   VTSD =     10 V
   VTSSWS =     10 V
   VTSSWD =     10 V
   VTSSWGS =     10 V
   VTSSWGD =     10 V
   LINTIGEN =      0 m
   NTGEN =      1 
   AIGEN =      0 m^-3V^-1
   BIGEN =      0 m^-3V^-3
   XRCRG1 =     12 
   XRCRG2 =      1 
   NSEG = 5 
   EF =      1 
   EM = 4.1e+07 V/m
   NOIA = 6.25e+39 eV^-1s^1-EFm^-3
   NOIB = 3.125e+24 eV^-1s^1-EFm^-1
   NOIC = 8.75e+07 eV^-1s^1-EFm
   NTNOI =      1 
   TNOM =  300.1 K
   TBGASUB = 0.000702 eV/K
   TBGBSUB =   1108 K
   KT1 =      0 V
   KT1L =      0 Vm
   IIT =   -0.5 
   TII =      0 
   TGIDL = -0.0003 K^-1
   IGT =    2.5 
   TCJ =      0 K^-1
   TCJSW =      0 K^-1
   TCJSWG =      0 K^-1
   TPB =      0 K^-1
   TPBSW =      0 K^-1
   TPBSWG =      0 K^-1
   XTIS =      3 
   XTID =      3 
   XTSS =   0.02 
   XTSD =   0.02 
   XTSSWS =   0.02 
   XTSSWD =   0.02 
   XTSSWGS =   0.02 
   XTSSWGD =   0.02 
   TNJTS =      0 
   TNJTSD =      0 
   TNJTSSW =      0 
   TNJTSSWD =      0 
   TNJTSSWG =      0 
   TNJTSSWGD =      0 
   RTH0 =   0.01 ohm
   CTH0 =  1e-05 F
   WTH0 =      0 m
   LNBODY =      0 
   NNBODY =      0 
   PNBODY =      0 
   LPHIG =      0 
   NPHIG =      0 
   PPHIG =      0 
   LNGATE =      0 
   NNGATE =      0 
   PNGATE =      0 
   LCIT =      0 
   NCIT =      0 
   PCIT =      0 
   LCDSC =      0 
   NCDSC =      0 
   PCDSC =      0 
   LCDSCD =      0 
   NCDSCD =      0 
   PCDSCD =      0 
   LCDSCDR =      0 
   NCDSCDR =      0 
   PCDSCDR =      0 
   LDVT0 =      0 
   NDVT0 =      0 
   PDVT0 =      0 
   LDVT1 =      0 
   NDVT1 =      0 
   PDVT1 =      0 
   LPHIN =      0 
   NPHIN =      0 
   PPHIN =      0 
   LETA0 =      0 
   NETA0 =      0 
   PETA0 =      0 
   LETA0R =      0 
   NETA0R =      0 
   PETA0R =      0 
   LDSUB =      0 
   NDSUB =      0 
   PDSUB =      0 
   LK1RSCE =      0 
   NK1RSCE =      0 
   PK1RSCE =      0 
   LLPE0 =      0 
   NLPE0 =      0 
   PLPE0 =      0 
   LQMFACTOR =      0 
   NQMFACTOR =      0 
   PQMFACTOR =      0 
   LQMTCENIV =      0 
   NQMTCENIV =      0 
   PQMTCENIV =      0 
   LQMTCENCV =      0 
   NQMTCENCV =      0 
   PQMTCENCV =      0 
   LVSAT =      0 
   NVSAT =      0 
   PVSAT =      0 
   LKSATIV =      0 
   NKSATIV =      0 
   PKSATIV =      0 
   LMEXP =      0 
   NMEXP =      0 
   PMEXP =      0 
   LPTWG =      0 
   NPTWG =      0 
   PPTWG =      0 
   LTHETASAT =      0 
   NTHETASAT =      0 
   PTHETASAT =      0 
   LU0 =      0 
   NU0 =      0 
   PU0 =      0 
   LUP =      0 
   NUP =      0 
   PUP =      0 
   LUA =      0 
   NUA =      0 
   PUA =      0 
   LEU =      0 
   NEU =      0 
   PEU =      0 
   LUD =      0 
   NUD =      0 
   PUD =      0 
   LUCS =      0 
   NUCS =      0 
   PUCS =      0 
   LPCLM =      0 
   NPCLM =      0 
   PPCLM =      0 
   LPCLMCV =      0 
   NPCLMCV =      0 
   PPCLMCV =      0 
   LRDSW =      0 
   NRDSW =      0 
   PRDSW =      0 
   LRSW =      0 
   NRSW =      0 
   PRSW =      0 
   LRDW =      0 
   NRDW =      0 
   PRDW =      0 
   LPRWG =      0 
   NPRWG =      0 
   PPRWG =      0 
   LWR =      0 
   NWR =      0 
   PWR =      0 
   LPDIBL1 =      0 
   NPDIBL1 =      0 
   PPDIBL1 =      0 
   LPDIBL2 =      0 
   NPDIBL2 =      0 
   PPDIBL2 =      0 
   LDROUT =      0 
   NDROUT =      0 
   PDROUT =      0 
   LPVAG =      0 
   NPVAG =      0 
   PPVAG =      0 
   LAIGBINV =      0 
   NAIGBINV =      0 
   PAIGBINV =      0 
   LBIGBINV =      0 
   NBIGBINV =      0 
   PBIGBINV =      0 
   LCIGBINV =      0 
   NCIGBINV =      0 
   PCIGBINV =      0 
   LEIGBINV =      0 
   NEIGBINV =      0 
   PEIGBINV =      0 
   LNIGBINV =      0 
   NNIGBINV =      0 
   PNIGBINV =      0 
   LAIGC =      0 
   NAIGC =      0 
   PAIGC =      0 
   LBIGC =      0 
   NBIGC =      0 
   PBIGC =      0 
   LCIGC =      0 
   NCIGC =      0 
   PCIGC =      0 
   LNIGC =      0 
   NNIGC =      0 
   PNIGC =      0 
   LAIGS =      0 
   NAIGS =      0 
   PAIGS =      0 
   LBIGS =      0 
   NBIGS =      0 
   PBIGS =      0 
   LCIGS =      0 
   NCIGS =      0 
   PCIGS =      0 
   LAIGD =      0 
   NAIGD =      0 
   PAIGD =      0 
   LBIGD =      0 
   NBIGD =      0 
   PBIGD =      0 
   LCIGD =      0 
   NCIGD =      0 
   PCIGD =      0 
   LPOXEDGE =      0 
   NPOXEDGE =      0 
   PPOXEDGE =      0 
   LAGIDL =      0 
   NAGIDL =      0 
   PAGIDL =      0 
   LBGIDL =      0 
   NBGIDL =      0 
   PBGIDL =      0 
   LEGIDL =      0 
   NEGIDL =      0 
   PEGIDL =      0 
   LAGISL =      0 
   NAGISL =      0 
   PAGISL =      0 
   LBGISL =      0 
   NBGISL =      0 
   PBGISL =      0 
   LEGISL =      0 
   NEGISL =      0 
   PEGISL =      0 
   LALPHA0 =      0 
   NALPHA0 =      0 
   PALPHA0 =      0 
   LALPHA1 =      0 
   NALPHA1 =      0 
   PALPHA1 =      0 
   LBETA0 =      0 
   NBETA0 =      0 
   PBETA0 =      0 
   LALPHAII =      0 
   NALPHAII =      0 
   PALPHAII =      0 
   LBETAII0 =      0 
   NBETAII0 =      0 
   PBETAII0 =      0 
   LBETAII1 =      0 
   NBETAII1 =      0 
   PBETAII1 =      0 
   LBETAII2 =      0 
   NBETAII2 =      0 
   PBETAII2 =      0 
   LESATII =      0 
   NESATII =      0 
   PESATII =      0 
   LLII =      0 
   NLII =      0 
   PLII =      0 
   LSII0 =      0 
   NSII0 =      0 
   PSII0 =      0 
   LSII1 =      0 
   NSII1 =      0 
   PSII1 =      0 
   LSII2 =      0 
   NSII2 =      0 
   PSII2 =      0 
   LSIID =      0 
   NSIID =      0 
   PSIID =      0 
   LCFS =      0 
   NCFS =      0 
   PCFS =      0 
   LCFD =      0 
   NCFD =      0 
   PCFD =      0 
   LCOVS =      0 
   NCOVS =      0 
   PCOVS =      0 
   LCOVD =      0 
   NCOVD =      0 
   PCOVD =      0 
   LCGSL =      0 
   NCGSL =      0 
   PCGSL =      0 
   LCGDL =      0 
   NCGDL =      0 
   PCGDL =      0 
   LCKAPPAS =      0 
   NCKAPPAS =      0 
   PCKAPPAS =      0 
   LCKAPPAD =      0 
   NCKAPPAD =      0 
   PCKAPPAD =      0 
   LCGBL =      0 
   NCGBL =      0 
   PCGBL =      0 
   LCKAPPAB =      0 
   NCKAPPAB =      0 
   PCKAPPAB =      0 
   LNTGEN =      0 
   NNTGEN =      0 
   PNTGEN =      0 
   LAIGEN =      0 
   NAIGEN =      0 
   PAIGEN =      0 
   LBIGEN =      0 
   NBIGEN =      0 
   PBIGEN =      0 
   LXRCRG1 =      0 
   NXRCRG1 =      0 
   PXRCRG1 =      0 
   LXRCRG2 =      0 
   NXRCRG2 =      0 
   PXRCRG2 =      0 
   LINTNOI =      0 
   NINTNOI =      0 
   PINTNOI =      0 
   LUTE =      0 
   NUTE =      0 
   PUTE =      0 
   LUTL =      0 
   NUTL =      0 
   PUTL =      0 
   LUA1 =      0 
   NUA1 =      0 
   PUA1 =      0 
   LUD1 =      0 
   NUD1 =      0 
   PUD1 =      0 
   LUCSTE =      0 
   NUCSTE =      0 
   PUCSTE =      0 
   LPTWGT =      0 
   NPTWGT =      0 
   PPTWGT =      0 
   LAT =      0 
   NAT =      0 
   PAT =      0 
   LSTTHETASAT =      0 
   NSTTHETASAT =      0 
   PSTTHETASAT =      0 
   LPRT =      0 
   NPRT =      0 
   PPRT =      0 
   LIIT =      0 
   NIIT =      0 
   PIIT =      0 
   LTII =      0 
   NTII =      0 
   PTII =      0 
   LTGIDL =      0 
   NTGIDL =      0 
   PTGIDL =      0 
   LIGT =      0 
   NIGT =      0 
   PIGT =      0 
   L = 1.1e-08 m
   D =  4e-08 m
   TFIN = 6.5e-09 m
   FPITCH = 2.2e-08 m
   NF = 1 
   NFIN = 1 
   NGCON = 1 
   ASEO =      0 m^2
   ADEO =      0 m^2
   PSEO =      0 m
   PDEO =      0 m
   ASEJ =      0 m^2
   ADEJ =      0 m^2
   PSEJ =      0 m
   PDEJ =      0 m
   CGSP =      0 F
   CGDP =      0 F
   CDSP =      0 F
   NRS =      0 
   NRD =      0 
   LRSD = 1.1e-08 m
   XL =      0 m
   DELVTRAND =      0 
   U0MULT =      1 
   IDS0MULT =      1 
   Lmin =  1e-08 m
   Lmax =  3e-08 m
   NFINmin = 0 
   NFINmax = 1 
   LVSAT1 =      0 
   NVSAT1 =      0 
   PVSAT1 =      0 
   LETAMOB =      0 
   NETAMOB =      0 
   PETAMOB =      0 
   LPCLMG =      0 
   NPCLMG =      0 
   PPCLMG =      0 
   LVASAT =      0 
   NVASAT =      0 
   PVASAT =      0 
   LAIGBACC =      0 
   NAIGBACC =      0 
   PAIGBACC =      0 
   LBIGBACC =      0 
   NBIGBACC =      0 
   PBIGBACC =      0 
   LCIGBACC =      0 
   NCIGBACC =      0 
   PCIGBACC =      0 
   LNIGBACC =      0 
   NNIGBACC =      0 
   PNIGBACC =      0 
 Model Name: nfet 
 BSIM-MG BULK Model(Level72)
   VERSION = 105.03  
   DEVTYPE = 1 
   BULKMOD = 1  
   COREMOD = 0 
   GEOMOD = 1 
   RDSMOD = 1 
   IGCMOD = 1 
   IGBMOD = 1 
   GIDLMOD = 0 
   IIMOD = 0 
   NQSMOD = 0 
   SHMOD = 0 
   RGATEMOD = 0 
   RGEOMOD = 1 
   CGEOMOD = 2 
   CAPMOD = 0 
   LINT = -2.5e-10 m
   LL =      0 m^(LLN+1)
   LLN =      1 
   DLC =      0 m
   DLBIN =      0 
   LLC =      0 m^(LLN+1)
   EOT = 8.4e-10 m
   TOXP = 1.15e-09 m
   EOTBOX = 1.4e-07 m
   HFIN = 1.8e-08 m
   FECH =      1 
   DELTAW =      0 m
   FECHCV =      1 
   DELTAWCV =      0 m
   NBODY =  1e+22 m^-3
   NSD =  3e+26 m^-3
   PHIG =  4.614 eV
   EPSROX =    3.9 
   EPSRSUB =   11.9 
   EASUB =   4.05 eV
   NI0SUB = 1.1e+16 m^-3
   BG0SUB =   1.12 eV
   NC0SUB = 2.86e+25 m^-3
   NGATE =      0 m^-3
   CIT = 1.3e-05 F/m^2
   CDSC = 0.0252 F/m^2
   CDSCD =  0.007 F/m^2
   CDSCDR =  0.007 
   DVT0 =   0.01 
   DVT1 =   0.69 
   PHIN =   0.05 V
   ETA0 =   0.39 
   ETA0R =   0.39 
   DSUB =    0.9 
   K1RSCE =      0 V^1/2
   LPE0 =  5e-09 m
   DVTSHIFT =      0 
   QMFACTOR =      0 
   QMTCENIV =      0 
   QMTCENCV =      0 
   AQMTCEN =      0 
   BQMTCEN = 1.2e-08 
   ETAQM =   0.54 
   QM0 = 0.001143 
   PQM =   0.66 
   QM0ACC =  0.001 
   PQMACC =   0.66 
   VSAT = 1.6e+05 
   AVSAT =      0 
   BVSAT =  1e-07 
   VSAT1 = 1.6e+05 
   AVSAT1 =      0 
   BVSAT1 =  1e-07 
   DELTAVSAT =      1 
   KSATIV =    0.8 
   MEXP =      3 
   AMEXP =      0 
   BMEXP =      1 
   PTWG =      0 
   APTWG =      0 
   BPTWG =  1e-07 
   AT = -0.00156 
   TMEXP =      0 
   PTWGT =  0.004 
   U0 =  0.065 
   ETAMOB =      2 
   UP =      0 
   LPA =      1 
   UA =    0.3 
   AUA =      0 
   BUA =  1e-07 
   EU =    1.8 
   AEU =      0 
   BEU =  1e-07 
   UD =      0 
   AUD =      0 
   BUD =  5e-08 
   UCS =      0 
   UTE =      0 
   UTL = -0.0015 
   UA1 = 0.001032 
   UD1 =      0 
   UCSTE = -0.00478 
   RDSWMIN =      0 
   RDSW =    100 
   ARDSW =      0 
   BRDSW =  1e-07 
   RSWMIN =      0 
   RSW =      0 
   ARSW =      0 
   BRSW =  1e-07 
   RDWMIN =      0 
   RDW =      0 
   ARDW =      0 
   BRDW =  1e-07 
   PRWG =      0 
   WR =      1 
   PRT =  0.001 
   PDIBL1 =    1.3 
   PDIBL2 = 0.0002 
   DROUT =   1.06 
   PVAG =      1 
   PCLM =    0.2 
   APCLM =      0 
   BPCLM =  1e-07 
   PCLMG =      0 
   VASAT =    0.6 
   PCLMCV =  0.013 
   PCLMGCV =      0 
   VASATCV =    0.2 
   RGEXT =      0 ohm
   RGFIN =  0.001 ohm
   RSHS =      0 ohm
   RSHD =      0 ohm
   HEPI =  8e-09 m
   TSILI =  7e-09 m
   RHOC =  4e-13 ohm/m^2
   RHORSD =      1 ohm/m
   RHOEXT =      1 ohm/m
   CRATIO =    0.5 
   DELTAPRSD =      0 m
   SDTERM = 0 
   LSP = 2.2e-09 m
   LDG =  2e-09 m
   EPSRSP =    3.9 
   TGATE = 7.5e-09 m
   TMASK =      0 m
   ASILIEND =      0 m^2
   ARSDEND =      0 m^2
   PRSDEND =      0 m
   NSDE =  9e+25 m^-3
   RGEOA =      1 
   RGEOB =      0 m^-1
   RGEOC =      0 m^-1
   RGEOD =      0 m^-1
   RGEOE =      0 m^-1
   CGEOA =      1 
   CGEOB =      0 m^-1
   CGEOC =      0 m^-1
   CGEOD =      0 m^-1
   CGEOE =      1 
   AIGBINV = 0.0111 (Fs^2/g)^0.5m^-1
   BIGBINV =   0.03 (Fs^2/g)^0.5m^-1
   CIGBINV =  0.006 V^-1
   EIGBINV =    1.1 V
   NIGBINV =    1.2 
   AIGBACC = 0.0149 
   BIGBACC = 0.000949 
   CIGBACC =  0.075 
   NIGBACC =      3 
   AIGC = 0.0136 (Fs^2/g)^0.5m^-1
   BIGC = 0.00171 (Fs^2/g)^0.5m^-1V^-1
   CIGC =  0.075 V^-1
   NIGC =      1 
   DLCIGS =      0 m
   AIGS = 0.0136 (Fs^2/g)^0.5m^-1
   BIGS = 0.00171 (Fs^2/g)^0.5m^-1V^-1
   CIGS =  0.075 V^-1
   DLCIGD =      0 m
   AIGD = 0.0136 (Fs^2/g)^0.5m^-1
   BIGD = 0.00171 (Fs^2/g)^0.5m^-1V^-1
   CIGD =  0.075 V^-1
   POXEDGE =      1 
   AGIDL = 5.729e-12 ohm^-1
   BGIDL =  3e+08 V/m
   EGIDL =    0.1 V
   AGISL = 5.729e-12 ohm^-1
   BGISL =  3e+08 V/m
   EGISL =    0.1 V
   ALPHA0 =      0 mV^-1
   ALPHA1 =      0 V^-1
   BETA0 =     30 V^-1
   ALPHAII =      0 
   BETAII0 =      0 V^-1
   BETAII1 =      0 
   BETAII2 =    0.1 V
   ESATII =  1e+07 V/m
   LII =  5e-10 V/m
   SII0 =    0.5 V^-1
   SII1 =    0.1 
   SII2 =      0 V
   SIID =      0 V
   EOTACC = 8.4e-10 m
   DELVFBACC =      0 V
   CFS = 2.56e-11 F/m
   CFD = 2.65e-11 F/m
   COVS = 2.5e-11 F/m
   COVD = 2.5e-11 F/m
   CGSO =      0 F/m
   CGDO =      0 F/m
   CGSL =      0 F/m
   CGDL =      0 F/m
   CKAPPAS =    0.6 V
   CKAPPAD =    0.6 V
   CGBO =      0 F/m
   CGBL =      0 F/m
   CKAPPAB =    0.6 V
   CSDESW =      0 F/m
   CJS = 0.0005 F/m^2
   CJD = 0.0005 F/m^2
   CJSWS =  5e-10 F/m
   CJSWD =  5e-10 F/m
   CJSWGS =      0 F/m
   CJSWGD =      0 F/m
   PBS =      1 V
   PBD =      1 V
   PBSWS =      1 V
   PBSWD =      1 V
   PBSWGS =      1 V
   PBSWGD =      1 V
   MJS, =    0.5 
   MJD =    0.5 
   MJSWS =   0.33 
   MJSWD =   0.33 
   MJSWGS =   0.33 
   MJSWGD =   0.33 
   SJS =      0 
   SJD =      0 
   SJSWS =      0 
   SJSWD =      0 
   SJSWGS =      0 
   SJSWGD =      0 
   MJS2 =  0.125 
   MJD2 =  0.125 
   MJSWS2 =   0.33 
   MJSWD2 =   0.33 
   MJSWGS2 =   0.33 
   MJSWGD2 =   0.33 
   JSS = 0.0001 A/m^2
   JSD = 0.0001 A/m^2
   JSWS =      0 A/m
   JSWD =      0 A/m
   JSWGS =      0 A/m
   JSWGD =      0 A/m
   NJS =      1 
   NJD =      1 
   IJTHSFWD =    0.1 A
   IJTHDFWD =    0.1 A
   IJTHSREV =    0.1 A
   IJTHDREV =    0.1 A
   BVS =     10 V
   BVD =     10 V
   XJBVS =      1 
   XJBVD =      1 
   JTSS =      0 A/m^2
   JTSD =      0 A/m^2
   JTSSWS =      0 A/m
   JTSSWD =      0 A/m
   JTSSWGS =      0 A/m
   JTSSWGD =      0 A/m
   JTWEFF =      0 m
   NJTS =     20 
   NJTSD =     20 
   NJTSSW =     20 
   NJTSSWD =     20 
   NJTSSWG =     20 
   NJTSSWGD =     20 
   VTSS =     10 V
   VTSD =     10 V
   VTSSWS =     10 V
   VTSSWD =     10 V
   VTSSWGS =     10 V
   VTSSWGD =     10 V
   LINTIGEN =      0 m
   NTGEN =      1 
   AIGEN =      0 m^-3V^-1
   BIGEN =      0 m^-3V^-3
   XRCRG1 =     12 
   XRCRG2 =      1 
   NSEG = 5 
   EF =      1 
   EM = 4.1e+07 V/m
   NOIA = 6.25e+39 eV^-1s^1-EFm^-3
   NOIB = 3.125e+24 eV^-1s^1-EFm^-1
   NOIC = 8.75e+07 eV^-1s^1-EFm
   NTNOI =      1 
   TNOM =  300.1 K
   TBGASUB = 0.000702 eV/K
   TBGBSUB =   1108 K
   KT1 =      0 V
   KT1L =      0 Vm
   IIT =   -0.5 
   TII =      0 
   TGIDL = -0.0003 K^-1
   IGT =    2.5 
   TCJ =      0 K^-1
   TCJSW =      0 K^-1
   TCJSWG =      0 K^-1
   TPB =      0 K^-1
   TPBSW =      0 K^-1
   TPBSWG =      0 K^-1
   XTIS =      3 
   XTID =      3 
   XTSS =   0.02 
   XTSD =   0.02 
   XTSSWS =   0.02 
   XTSSWD =   0.02 
   XTSSWGS =   0.02 
   XTSSWGD =   0.02 
   TNJTS =      0 
   TNJTSD =      0 
   TNJTSSW =      0 
   TNJTSSWD =      0 
   TNJTSSWG =      0 
   TNJTSSWGD =      0 
   RTH0 =   0.01 ohm
   CTH0 =  1e-05 F
   WTH0 =      0 m
   LNBODY =      0 
   NNBODY =      0 
   PNBODY =      0 
   LPHIG =      0 
   NPHIG =      0 
   PPHIG =      0 
   LNGATE =      0 
   NNGATE =      0 
   PNGATE =      0 
   LCIT =      0 
   NCIT =      0 
   PCIT =      0 
   LCDSC =      0 
   NCDSC =      0 
   PCDSC =      0 
   LCDSCD =      0 
   NCDSCD =      0 
   PCDSCD =      0 
   LCDSCDR =      0 
   NCDSCDR =      0 
   PCDSCDR =      0 
   LDVT0 =      0 
   NDVT0 =      0 
   PDVT0 =      0 
   LDVT1 =      0 
   NDVT1 =      0 
   PDVT1 =      0 
   LPHIN =      0 
   NPHIN =      0 
   PPHIN =      0 
   LETA0 =      0 
   NETA0 =      0 
   PETA0 =      0 
   LETA0R =      0 
   NETA0R =      0 
   PETA0R =      0 
   LDSUB =      0 
   NDSUB =      0 
   PDSUB =      0 
   LK1RSCE =      0 
   NK1RSCE =      0 
   PK1RSCE =      0 
   LLPE0 =      0 
   NLPE0 =      0 
   PLPE0 =      0 
   LQMFACTOR =      0 
   NQMFACTOR =      0 
   PQMFACTOR =      0 
   LQMTCENIV =      0 
   NQMTCENIV =      0 
   PQMTCENIV =      0 
   LQMTCENCV =      0 
   NQMTCENCV =      0 
   PQMTCENCV =      0 
   LVSAT =      0 
   NVSAT =      0 
   PVSAT =      0 
   LKSATIV =      0 
   NKSATIV =      0 
   PKSATIV =      0 
   LMEXP =      0 
   NMEXP =      0 
   PMEXP =      0 
   LPTWG =      0 
   NPTWG =      0 
   PPTWG =      0 
   LTHETASAT =      0 
   NTHETASAT =      0 
   PTHETASAT =      0 
   LU0 =      0 
   NU0 =      0 
   PU0 =      0 
   LUP =      0 
   NUP =      0 
   PUP =      0 
   LUA =      0 
   NUA =      0 
   PUA =      0 
   LEU =      0 
   NEU =      0 
   PEU =      0 
   LUD =      0 
   NUD =      0 
   PUD =      0 
   LUCS =      0 
   NUCS =      0 
   PUCS =      0 
   LPCLM =      0 
   NPCLM =      0 
   PPCLM =      0 
   LPCLMCV =      0 
   NPCLMCV =      0 
   PPCLMCV =      0 
   LRDSW =      0 
   NRDSW =      0 
   PRDSW =      0 
   LRSW =      0 
   NRSW =      0 
   PRSW =      0 
   LRDW =      0 
   NRDW =      0 
   PRDW =      0 
   LPRWG =      0 
   NPRWG =      0 
   PPRWG =      0 
   LWR =      0 
   NWR =      0 
   PWR =      0 
   LPDIBL1 =      0 
   NPDIBL1 =      0 
   PPDIBL1 =      0 
   LPDIBL2 =      0 
   NPDIBL2 =      0 
   PPDIBL2 =      0 
   LDROUT =      0 
   NDROUT =      0 
   PDROUT =      0 
   LPVAG =      0 
   NPVAG =      0 
   PPVAG =      0 
   LAIGBINV =      0 
   NAIGBINV =      0 
   PAIGBINV =      0 
   LBIGBINV =      0 
   NBIGBINV =      0 
   PBIGBINV =      0 
   LCIGBINV =      0 
   NCIGBINV =      0 
   PCIGBINV =      0 
   LEIGBINV =      0 
   NEIGBINV =      0 
   PEIGBINV =      0 
   LNIGBINV =      0 
   NNIGBINV =      0 
   PNIGBINV =      0 
   LAIGC =      0 
   NAIGC =      0 
   PAIGC =      0 
   LBIGC =      0 
   NBIGC =      0 
   PBIGC =      0 
   LCIGC =      0 
   NCIGC =      0 
   PCIGC =      0 
   LNIGC =      0 
   NNIGC =      0 
   PNIGC =      0 
   LAIGS =      0 
   NAIGS =      0 
   PAIGS =      0 
   LBIGS =      0 
   NBIGS =      0 
   PBIGS =      0 
   LCIGS =      0 
   NCIGS =      0 
   PCIGS =      0 
   LAIGD =      0 
   NAIGD =      0 
   PAIGD =      0 
   LBIGD =      0 
   NBIGD =      0 
   PBIGD =      0 
   LCIGD =      0 
   NCIGD =      0 
   PCIGD =      0 
   LPOXEDGE =      0 
   NPOXEDGE =      0 
   PPOXEDGE =      0 
   LAGIDL =      0 
   NAGIDL =      0 
   PAGIDL =      0 
   LBGIDL =      0 
   NBGIDL =      0 
   PBGIDL =      0 
   LEGIDL =      0 
   NEGIDL =      0 
   PEGIDL =      0 
   LAGISL =      0 
   NAGISL =      0 
   PAGISL =      0 
   LBGISL =      0 
   NBGISL =      0 
   PBGISL =      0 
   LEGISL =      0 
   NEGISL =      0 
   PEGISL =      0 
   LALPHA0 =      0 
   NALPHA0 =      0 
   PALPHA0 =      0 
   LALPHA1 =      0 
   NALPHA1 =      0 
   PALPHA1 =      0 
   LBETA0 =      0 
   NBETA0 =      0 
   PBETA0 =      0 
   LALPHAII =      0 
   NALPHAII =      0 
   PALPHAII =      0 
   LBETAII0 =      0 
   NBETAII0 =      0 
   PBETAII0 =      0 
   LBETAII1 =      0 
   NBETAII1 =      0 
   PBETAII1 =      0 
   LBETAII2 =      0 
   NBETAII2 =      0 
   PBETAII2 =      0 
   LESATII =      0 
   NESATII =      0 
   PESATII =      0 
   LLII =      0 
   NLII =      0 
   PLII =      0 
   LSII0 =      0 
   NSII0 =      0 
   PSII0 =      0 
   LSII1 =      0 
   NSII1 =      0 
   PSII1 =      0 
   LSII2 =      0 
   NSII2 =      0 
   PSII2 =      0 
   LSIID =      0 
   NSIID =      0 
   PSIID =      0 
   LCFS =      0 
   NCFS =      0 
   PCFS =      0 
   LCFD =      0 
   NCFD =      0 
   PCFD =      0 
   LCOVS =      0 
   NCOVS =      0 
   PCOVS =      0 
   LCOVD =      0 
   NCOVD =      0 
   PCOVD =      0 
   LCGSL =      0 
   NCGSL =      0 
   PCGSL =      0 
   LCGDL =      0 
   NCGDL =      0 
   PCGDL =      0 
   LCKAPPAS =      0 
   NCKAPPAS =      0 
   PCKAPPAS =      0 
   LCKAPPAD =      0 
   NCKAPPAD =      0 
   PCKAPPAD =      0 
   LCGBL =      0 
   NCGBL =      0 
   PCGBL =      0 
   LCKAPPAB =      0 
   NCKAPPAB =      0 
   PCKAPPAB =      0 
   LNTGEN =      0 
   NNTGEN =      0 
   PNTGEN =      0 
   LAIGEN =      0 
   NAIGEN =      0 
   PAIGEN =      0 
   LBIGEN =      0 
   NBIGEN =      0 
   PBIGEN =      0 
   LXRCRG1 =      0 
   NXRCRG1 =      0 
   PXRCRG1 =      0 
   LXRCRG2 =      0 
   NXRCRG2 =      0 
   PXRCRG2 =      0 
   LINTNOI =      0 
   NINTNOI =      0 
   PINTNOI =      0 
   LUTE =      0 
   NUTE =      0 
   PUTE =      0 
   LUTL =      0 
   NUTL =      0 
   PUTL =      0 
   LUA1 =      0 
   NUA1 =      0 
   PUA1 =      0 
   LUD1 =      0 
   NUD1 =      0 
   PUD1 =      0 
   LUCSTE =      0 
   NUCSTE =      0 
   PUCSTE =      0 
   LPTWGT =      0 
   NPTWGT =      0 
   PPTWGT =      0 
   LAT =      0 
   NAT =      0 
   PAT =      0 
   LSTTHETASAT =      0 
   NSTTHETASAT =      0 
   PSTTHETASAT =      0 
   LPRT =      0 
   NPRT =      0 
   PPRT =      0 
   LIIT =      0 
   NIIT =      0 
   PIIT =      0 
   LTII =      0 
   NTII =      0 
   PTII =      0 
   LTGIDL =      0 
   NTGIDL =      0 
   PTGIDL =      0 
   LIGT =      0 
   NIGT =      0 
   PIGT =      0 
   L = 1.1e-08 m
   D =  4e-08 m
   TFIN = 6.5e-09 m
   FPITCH = 2.2e-08 m
   NF = 1 
   NFIN = 1 
   NGCON = 1 
   ASEO =      0 m^2
   ADEO =      0 m^2
   PSEO =      0 m
   PDEO =      0 m
   ASEJ =      0 m^2
   ADEJ =      0 m^2
   PSEJ =      0 m
   PDEJ =      0 m
   CGSP =      0 F
   CGDP =      0 F
   CDSP =      0 F
   NRS =      0 
   NRD =      0 
   LRSD = 1.1e-08 m
   XL =      0 m
   DELVTRAND =      0 
   U0MULT =      1 
   IDS0MULT =      1 
   Lmin =  1e-08 m
   Lmax =  3e-08 m
   NFINmin = 0 
   NFINmax = 1 
   LVSAT1 =      0 
   NVSAT1 =      0 
   PVSAT1 =      0 
   LETAMOB =      0 
   NETAMOB =      0 
   PETAMOB =      0 
   LPCLMG =      0 
   NPCLMG =      0 
   PPCLMG =      0 
   LVASAT =      0 
   NVASAT =      0 
   PVASAT =      0 
   LAIGBACC =      0 
   NAIGBACC =      0 
   PAIGBACC =      0 
   LBIGBACC =      0 
   NBIGBACC =      0 
   PBIGBACC =      0 
   LCIGBACC =      0 
   NCIGBACC =      0 
   PCIGBACC =      0 
   LNIGBACC =      0 
   NNIGBACC =      0 
   PNIGBACC =      0 
  **info** (ptm7lstp.sp:8) DC voltage reset to initial transient source value              in source        0:vin_0               new dc=  0.7000D+00
  
 **warning**  No DC path to ground from node        0:outin_30         defined in subckt 0               ; Connected by HSPICE with gdcpath


      
 **info** set option symb=1 internally to help for convergence.
 *****************************************************************
 ******  option summary
 ******
 runlvl  = 3         bypass  = 2         
  Opening plot unit= 15
 file=ptm7lstp.pa0                                                             

1****** HSPICE -- F-2011.09-SP2 64-BIT (Feb 27 2012) linux ******               
 ******  
 $this uut was automatically generated by:

  ******  operating point information tnom=  25.000 temp=  25.000 *****
 ***** operating point status is voltage   simulation time is     0.     
     node    =voltage       node    =voltage       node    =voltage

 + 0:inb_0   = 700.0000m  0:inb_1   = 700.0000m  0:outb_00 = 699.9853m
 + 0:outb_10 = 699.9853m  0:outin_00=  13.6288u  0:outin_01=  13.6288u
 + 0:outin_10= 699.9875m  0:outin_11= 699.9875m  0:outin_20=  13.6328u
 + 0:outin_21=  13.6328u  0:outin_30=   7.0930m  0:outin_31=   7.0930m
 + 0:vdd     = 700.0000m

 ******  
 $this uut was automatically generated by:

  ******  transient analysis tnom=  25.000 temp=  25.000 *****
 inv_avg_power00=  61.9783n  from=   0.          to=   4.0000n
 peakpower00=   7.3969u    at=   1.0828n
             from=   0.         to=   4.0000n
 inv_avg_power10=  25.5298n  from=   0.          to=   4.0000n
 peakpower10=   5.3791u    at=   2.0361n
             from=   0.         to=   4.0000n
 inv_avg_power01=  29.1496n  from=   0.          to=   4.0000n
 peakpower01=   6.9703u    at=   2.0828n
             from=   0.         to=   4.0000n
 inv_avg_power11=  14.1718n  from=   0.          to=   4.0000n
 peakpower11=   6.2868u    at=   2.0867n
             from=   0.         to=   4.0000n
 uut_grid_avg_power= 130.8295n  from=   0.          to=   4.0000n
 uut_grid_max_power=  13.6511u    at=  27.2598p
             from=   0.         to=   4.0000n
 source_power= 211.6705n  from=   0.          to=   4.0000n
 trf_delay_001=   2.0415p  targ=  34.2551p   trig=  32.2137p
 tfr_delay_001=   4.8672p  targ=   1.0855n   trig=   1.0806n
 trf_delay_002=   4.5716p  targ=   2.0365n   trig=   2.0319n
 tfr_delay_002=   4.5731p  targ=   3.0851n   trig=   3.0805n
 trf_delay_101=   2.7198p  targ=   1.0882n   trig=   1.0855n
 tfr_delay_101=   1.7403p  targ=  35.9954p   trig=  34.2551p
 trf_delay_102= 488.4886f  targ=   3.0856n   trig=   3.0851n
 tfr_delay_102=   1.8275p  targ=   2.0383n   trig=   2.0365n
 trf_delay_011=   2.0415p  targ=  34.2551p   trig=  32.2137p
 tfr_delay_011=   4.5990p  targ=   2.0866n   trig=   2.0820n
 trf_delay_111=   1.5355p  targ=   2.0882n   trig=   2.0866n
 tfr_delay_111=   1.7403p  targ=  35.9954p   trig=  34.2551p
x

        time    voltage      voltage    
                 outin_00     outin_10  
    0.           13.6288u    699.9875m  
   10.00000p     -1.5944m    700.0327m  
   20.00000p     29.7422m    679.5811m  
   30.00000p    269.0231m    480.7728m  
   40.00000p    603.3707m    142.9865m  
   50.00000p    701.6258m    -16.1812m  
   60.00000p    699.8709m      0.       
   70.00000p    699.8935m     -6.6282u  
   80.00000p    699.9849m     14.5545u  
   90.00000p    700.1013m     37.9967u  
  100.00000p    700.0184m     19.6886u  
  110.00000p    699.9355m      1.3804u  
  120.00000p    699.8775m    -11.3446u  
  130.00000p    699.9201m     -1.5302u  
  140.00000p    699.9627m      8.2842u  
  150.00000p    700.0053m     18.0985u  
  160.00000p    700.0479m     27.9129u  
  170.00000p    700.0906m     37.7272u  
  180.00000p    700.0868m     36.7861u  
  190.00000p    700.0674m     32.2230u  
  200.00000p    700.0479m     27.6600u  
  210.00000p    700.0285m     23.0969u  
  220.00000p    700.0091m     18.5339u  
  230.00000p    699.9897m     13.9709u  
  240.00000p    699.9703m      9.4078u  
  250.00000p    699.9508m      4.8448u  
  260.00000p    699.9314m      0.       
  270.00000p    699.9120m     -4.2813u  
  280.00000p    699.8926m     -8.8444u  
  290.00000p    699.8776m    -12.3537u  
  300.00000p    699.8897m     -9.4827u  
  310.00000p    699.9018m     -6.6118u  
  320.00000p    699.9139m     -3.7408u  
  330.00000p    699.9260m   -869.8801n  
  340.00000p    699.9381m      2.0011u  
  350.00000p    699.9502m      4.8720u  
  360.00000p    699.9623m      7.7430u  
  370.00000p    699.9744m     10.6139u  
  380.00000p    699.9865m     13.4848u  
  390.00000p    699.9986m     16.3558u  
  400.00000p    700.0107m     19.2267u  
  410.00000p    700.0228m     22.0977u  
  420.00000p    700.0349m     24.9686u  
  430.00000p    700.0469m     27.8396u  
  440.00000p    700.0590m     30.7105u  
  450.00000p    700.0711m     33.5814u  
  460.00000p    700.0832m     36.4524u  
  470.00000p    700.0953m     39.3233u  
  480.00000p    700.0891m     37.8221u  
  490.00000p    700.0781m     35.1997u  
  500.00000p    700.0671m     32.5773u  
  510.00000p    700.0562m     29.9549u  
  520.00000p    700.0452m     27.3325u  
  530.00000p    700.0342m     24.7101u  
  540.00000p    700.0233m     22.0877u  
  550.00000p    700.0123m     19.4653u  
  560.00000p    700.0013m     16.8428u  
  570.00000p    699.9904m     14.2204u  
  580.00000p    699.9794m     11.5980u  
  590.00000p    699.9685m      8.9756u  
  600.00000p    699.9575m      6.3532u  
  610.00000p    699.9465m      3.7308u  
  620.00000p    699.9356m      1.1084u  
  630.00000p    699.9246m     -1.5140u  
  640.00000p    699.9136m     -4.1364u  
  650.00000p    699.9027m     -6.7588u  
  660.00000p    699.8917m     -9.3812u  
  670.00000p    699.8807m    -12.0036u  
  680.00000p    699.8871m    -10.4602u  
  690.00000p    699.8980m     -7.8486u  
  700.00000p    699.9088m     -5.2369u  
  710.00000p    699.9197m     -2.6253u  
  720.00000p    699.9305m      0.       
  730.00000p    699.9413m      2.5979u  
  740.00000p    699.9522m      5.2096u  
  750.00000p    699.9630m      7.8212u  
  760.00000p    699.9739m     10.4328u  
  770.00000p    699.9847m     13.0445u  
  780.00000p    699.9956m     15.6561u  
  790.00000p    700.0064m     18.2677u  
  800.00000p    700.0172m     20.8793u  
  810.00000p    700.0281m     23.4910u  
  820.00000p    700.0389m     26.1026u  
  830.00000p    700.0498m     28.7142u  
  840.00000p    700.0606m     31.3259u  
  850.00000p    700.0715m     33.9375u  
  860.00000p    700.0823m     36.5491u  
  870.00000p    700.0931m     39.1607u  
  880.00000p    700.0858m     37.3681u  
  890.00000p    700.0737m     34.4461u  
  900.00000p    700.0617m     31.5241u  
  910.00000p    700.0496m     28.6021u  
  920.00000p    700.0376m     25.6801u  
  930.00000p    700.0256m     22.7581u  
  940.00000p    700.0135m     19.8361u  
  950.00000p    700.0015m     16.9141u  
  960.00000p    699.9894m     13.9921u  
  970.00000p    699.9774m     11.0702u  
  980.00000p    699.9653m      8.1482u  
  990.00000p    699.9533m      5.2262u  
    1.00000n    699.9413m      2.3042u  
    1.01000n    699.9292m   -617.8367n  
    1.02000n    699.9172m     -3.5398u  
    1.03000n    699.9051m     -6.4618u  
    1.04000n    699.8931m     -9.3838u  
    1.05000n    699.8810m    -12.3058u  
    1.06000n    702.8186m     12.3015u  
    1.07000n    613.4926m      3.8976m  
    1.08000n    369.4525m     56.9678m  
    1.09000n     46.1214m    588.0721m  
    1.10000n      1.8037m    697.1391m  
    1.11000n     25.2462u    699.9001m  
    1.12000n     11.2683u    700.0373m  
    1.13000n     12.7601u    699.9442m  
    1.14000n     13.6345u    699.9476m  
    1.15000n     14.2761u    699.9873m  
    1.16000n     14.9176u    700.0271m  
    1.17000n     15.1616u    700.0476m  
    1.18000n     14.5979u    700.0292m  
    1.19000n     14.0343u    700.0107m  
    1.20000n     13.4707u    699.9922m  
    1.21000n     12.9071u    699.9737m  
    1.22000n     12.3435u    699.9552m  
    1.23000n     11.7799u    699.9367m  
    1.24000n     11.4263u    699.9247m  
    1.25000n     11.7737u    699.9339m  
    1.26000n     12.1212u    699.9432m  
    1.27000n     12.4687u    699.9525m  
    1.28000n     12.8162u    699.9618m  
    1.29000n     13.1636u    699.9711m  
    1.30000n     13.5111u    699.9804m  
    1.31000n     13.8586u    699.9897m  
    1.32000n     14.2061u    699.9990m  
    1.33000n     14.5535u    700.0083m  
    1.34000n     14.9010u    700.0176m  
    1.35000n     15.2485u    700.0269m  
    1.36000n     15.5960u    700.0362m  
    1.37000n     15.9434u    700.0455m  
    1.38000n     16.1037u    700.0500m  
    1.39000n     15.8386u    700.0436m  
    1.40000n     15.5735u    700.0372m  
    1.41000n     15.3084u    700.0307m  
    1.42000n     15.0433u    700.0243m  
    1.43000n     14.7782u    700.0179m  
    1.44000n     14.5130u    700.0115m  
    1.45000n     14.2479u    700.0050m  
    1.46000n     13.9828u    699.9986m  
    1.47000n     13.7177u    699.9922m  
    1.48000n     13.4526u    699.9858m  
    1.49000n     13.1874u    699.9793m  
    1.50000n     12.9223u    699.9729m  
    1.51000n     12.6572u    699.9665m  
    1.52000n     12.3921u    699.9601m  
    1.53000n     12.1270u    699.9537m  
    1.54000n     11.8618u    699.9472m  
    1.55000n     11.5967u    699.9408m  
    1.56000n     11.3316u    699.9344m  
    1.57000n     11.0665u    699.9280m  
    1.58000n     10.9691u    699.9254m  
    1.59000n     11.2528u    699.9318m  
    1.60000n     11.5366u    699.9382m  
    1.61000n     11.8204u    699.9446m  
    1.62000n     12.1042u    699.9510m  
    1.63000n     12.3880u    699.9574m  
    1.64000n     12.6717u    699.9637m  
    1.65000n     12.9555u    699.9701m  
    1.66000n     13.2393u    699.9765m  
    1.67000n     13.5231u    699.9829m  
    1.68000n     13.8069u    699.9893m  
    1.69000n     14.0906u    699.9956m  
    1.70000n     14.3744u    700.0020m  
    1.71000n     14.6582u    700.0084m  
    1.72000n     14.9420u    700.0148m  
    1.73000n     15.2258u    700.0212m  
    1.74000n     15.5095u    700.0276m  
    1.75000n     15.7933u    700.0339m  
    1.76000n     16.0771u    700.0403m  
    1.77000n     16.3609u    700.0467m  
    1.78000n     16.4657u    700.0492m  
    1.79000n     16.1635u    700.0429m  
    1.80000n     15.8614u    700.0365m  
    1.81000n     15.5593u    700.0302m  
    1.82000n     15.2572u    700.0238m  
    1.83000n     14.9551u    700.0175m  
    1.84000n     14.6530u    700.0111m  
    1.85000n     14.3508u    700.0048m  
    1.86000n     14.0487u    699.9985m  
    1.87000n     13.7466u    699.9921m  
    1.88000n     13.4445u    699.9858m  
    1.89000n     13.1424u    699.9794m  
    1.90000n     12.8402u    699.9731m  
    1.91000n     12.5381u    699.9667m  
    1.92000n     12.2360u    699.9604m  
    1.93000n     11.9339u    699.9541m  
    1.94000n     11.6318u    699.9477m  
    1.95000n     11.3296u    699.9414m  
    1.96000n     11.0275u    699.9350m  
    1.97000n     10.7254u    699.9287m  
    1.98000n     11.5334u    699.9406m  
    1.99000n     14.8650u    699.9941m  
    2.00000n     18.1965u    700.0476m  
    2.01000n     -1.8666m    700.0066m  
    2.02000n     16.1115m    700.5689m  
    2.03000n    274.6271m    694.8143m  
    2.04000n    655.9115m     75.0433m  
    2.05000n    697.2530m    659.4492u  
    2.06000n    699.9552m      6.8466u  
    2.07000n    699.9981m     16.8926u  
    2.08000n    699.9879m     13.8090u  
    2.09000n    699.9875m     13.5851u  
    2.10000n    699.9876m     13.6895u  
    2.11000n    699.9875m     13.6332u  
    2.12000n    699.9875m     13.6335u  
    2.13000n    699.9875m     13.6340u  
    2.14000n    699.9875m     13.6333u  
    2.15000n    699.9875m     13.6327u  
    2.16000n    699.9875m     13.6323u  
    2.17000n    699.9875m     13.6325u  
    2.18000n    699.9875m     13.6327u  
    2.19000n    699.9875m     13.6329u  
    2.20000n    699.9875m     13.6331u  
    2.21000n    699.9875m     13.6333u  
    2.22000n    699.9875m     13.6335u  
    2.23000n    699.9875m     13.6337u  
    2.24000n    699.9875m     13.6339u  
    2.25000n    699.9875m     13.6341u  
    2.26000n    699.9875m     13.6343u  
    2.27000n    699.9875m     13.6342u  
    2.28000n    699.9875m     13.6341u  
    2.29000n    699.9875m     13.6340u  
    2.30000n    699.9875m     13.6339u  
    2.31000n    699.9875m     13.6338u  
    2.32000n    699.9875m     13.6337u  
    2.33000n    699.9875m     13.6336u  
    2.34000n    699.9875m     13.6335u  
    2.35000n    699.9875m     13.6334u  
    2.36000n    699.9875m     13.6333u  
    2.37000n    699.9875m     13.6332u  
    2.38000n    699.9875m     13.6331u  
    2.39000n    699.9875m     13.6330u  
    2.40000n    699.9875m     13.6329u  
    2.41000n    699.9875m     13.6328u  
    2.42000n    699.9875m     13.6327u  
    2.43000n    699.9875m     13.6326u  
    2.44000n    699.9875m     13.6325u  
    2.45000n    699.9875m     13.6324u  
    2.46000n    699.9875m     13.6323u  
    2.47000n    699.9875m     13.6324u  
    2.48000n    699.9875m     13.6325u  
    2.49000n    699.9875m     13.6326u  
    2.50000n    699.9875m     13.6327u  
    2.51000n    699.9875m     13.6328u  
    2.52000n    699.9875m     13.6329u  
    2.53000n    699.9875m     13.6330u  
    2.54000n    699.9875m     13.6331u  
    2.55000n    699.9875m     13.6332u  
    2.56000n    699.9875m     13.6333u  
    2.57000n    699.9875m     13.6334u  
    2.58000n    699.9875m     13.6335u  
    2.59000n    699.9875m     13.6336u  
    2.60000n    699.9875m     13.6337u  
    2.61000n    699.9875m     13.6338u  
    2.62000n    699.9875m     13.6339u  
    2.63000n    699.9875m     13.6340u  
    2.64000n    699.9875m     13.6341u  
    2.65000n    699.9875m     13.6342u  
    2.66000n    699.9875m     13.6343u  
    2.67000n    699.9875m     13.6342u  
    2.68000n    699.9875m     13.6341u  
    2.69000n    699.9875m     13.6340u  
    2.70000n    699.9875m     13.6339u  
    2.71000n    699.9875m     13.6338u  
    2.72000n    699.9875m     13.6337u  
    2.73000n    699.9875m     13.6336u  
    2.74000n    699.9875m     13.6335u  
    2.75000n    699.9875m     13.6334u  
    2.76000n    699.9875m     13.6333u  
    2.77000n    699.9875m     13.6332u  
    2.78000n    699.9875m     13.6331u  
    2.79000n    699.9875m     13.6330u  
    2.80000n    699.9875m     13.6329u  
    2.81000n    699.9875m     13.6328u  
    2.82000n    699.9875m     13.6327u  
    2.83000n    699.9875m     13.6326u  
    2.84000n    699.9875m     13.6325u  
    2.85000n    699.9875m     13.6324u  
    2.86000n    699.9875m     13.6323u  
    2.87000n    699.9875m     13.6324u  
    2.88000n    699.9875m     13.6325u  
    2.89000n    699.9875m     13.6326u  
    2.90000n    699.9875m     13.6327u  
    2.91000n    699.9875m     13.6328u  
    2.92000n    699.9875m     13.6329u  
    2.93000n    699.9875m     13.6330u  
    2.94000n    699.9875m     13.6331u  
    2.95000n    699.9875m     13.6333u  
    2.96000n    699.9875m     13.6334u  
    2.97000n    699.9875m     13.6335u  
    2.98000n    699.9875m     13.6336u  
    2.99000n    699.9875m     13.6337u  
    3.00000n    699.9875m     13.6338u  
    3.01000n    699.9875m     13.6339u  
    3.02000n    699.9875m     13.6340u  
    3.03000n    699.9875m     13.6341u  
    3.04000n    699.9875m     13.6342u  
    3.05000n    699.9875m     13.6343u  
    3.06000n    702.7999m     12.6009u  
    3.07000n    610.8523m     19.6681m  
    3.08000n    368.6158m     77.6493m  
    3.09000n     33.1083m    610.3079m  
    3.10000n      3.0152m    702.3394m  
    3.11000n     15.8563u    700.0059m  
    3.12000n     12.7472u    699.9762m  
    3.13000n     15.0833u    699.9895m  
    3.14000n     17.1660u    700.0015m  
    3.15000n     16.2789u    699.9969m  
    3.16000n     15.3918u    699.9923m  
    3.17000n     14.5048u    699.9877m  
    3.18000n     13.6177u    699.9831m  
    3.19000n     12.7307u    699.9785m  
    3.20000n     11.8436u    699.9739m  
    3.21000n     12.1388u    699.9753m  
    3.22000n     12.5559u    699.9774m  
    3.23000n     12.9731u    699.9795m  
    3.24000n     13.3902u    699.9816m  
    3.25000n     13.8074u    699.9837m  
    3.26000n     14.2245u    699.9858m  
    3.27000n     14.6417u    699.9879m  
    3.28000n     15.0588u    699.9900m  
    3.29000n     15.4760u    699.9921m  
    3.30000n     15.8931u    699.9942m  
    3.31000n     16.3103u    699.9963m  
    3.32000n     16.7274u    699.9984m  
    3.33000n     17.1446u    700.0005m  
    3.34000n     17.1841u    700.0007m  
    3.35000n     16.9028u    699.9993m  
    3.36000n     16.6216u    699.9979m  
    3.37000n     16.3403u    699.9965m  
    3.38000n     16.0591u    699.9951m  
    3.39000n     15.7779u    699.9937m  
    3.40000n     15.4966u    699.9923m  
    3.41000n     15.2154u    699.9910m  
    3.42000n     14.9341u    699.9896m  
    3.43000n     14.6529u    699.9882m  
    3.44000n     14.3717u    699.9868m  
    3.45000n     14.0904u    699.9854m  
    3.46000n     13.8092u    699.9840m  
    3.47000n     13.5280u    699.9826m  
    3.48000n     13.2467u    699.9812m  
    3.49000n     12.9655u    699.9799m  
    3.50000n     12.6842u    699.9785m  
    3.51000n     12.4030u    699.9771m  
    3.52000n     12.1218u    699.9757m  
    3.53000n     11.8405u    699.9743m  
    3.54000n     11.8645u    699.9744m  
    3.55000n     12.1476u    699.9758m  
    3.56000n     12.4308u    699.9772m  
    3.57000n     12.7139u    699.9786m  
    3.58000n     12.9971u    699.9799m  
    3.59000n     13.2802u    699.9813m  
    3.60000n     13.5634u    699.9827m  
    3.61000n     13.8465u    699.9841m  
    3.62000n     14.1297u    699.9854m  
    3.63000n     14.4128u    699.9868m  
    3.64000n     14.6960u    699.9882m  
    3.65000n     14.9791u    699.9896m  
    3.66000n     15.2623u    699.9910m  
    3.67000n     15.5454u    699.9923m  
    3.68000n     15.8286u    699.9937m  
    3.69000n     16.1117u    699.9951m  
    3.70000n     16.3949u    699.9965m  
    3.71000n     16.6780u    699.9979m  
    3.72000n     16.9612u    699.9992m  
    3.73000n     17.2444u    700.0006m  
    3.74000n     17.2203u    700.0005m  
    3.75000n     16.9353u    699.9991m  
    3.76000n     16.6502u    699.9978m  
    3.77000n     16.3652u    699.9964m  
    3.78000n     16.0802u    699.9950m  
    3.79000n     15.7952u    699.9937m  
    3.80000n     15.5102u    699.9923m  
    3.81000n     15.2252u    699.9909m  
    3.82000n     14.9401u    699.9895m  
    3.83000n     14.6551u    699.9882m  
    3.84000n     14.3701u    699.9868m  
    3.85000n     14.0851u    699.9854m  
    3.86000n     13.8001u    699.9841m  
    3.87000n     13.5151u    699.9827m  
    3.88000n     13.2300u    699.9813m  
    3.89000n     12.9450u    699.9800m  
    3.90000n     12.6600u    699.9786m  
    3.91000n     12.3750u    699.9772m  
    3.92000n     12.0900u    699.9758m  
    3.93000n     11.8049u    699.9745m  
    3.94000n     12.1512u    699.9761m  
    3.95000n     13.0337u    699.9802m  
    3.96000n     13.9163u    699.9844m  
    3.97000n     14.7988u    699.9885m  
    3.98000n     15.6813u    699.9926m  
    3.99000n     16.5638u    699.9968m  
    4.00000n     17.4463u    700.0009m  
y
x

        time    voltage      voltage    
                 outin_10     outin_20  
    0.          699.9875m     13.6328u  
   10.00000p    700.0327m     15.2337u  
   20.00000p    679.5811m     17.7752m  
   30.00000p    480.7728m    188.6447m  
   40.00000p    142.9865m    534.4797m  
   50.00000p    -16.1812m    711.0325m  
   60.00000p      0.         700.0292m  
   70.00000p     -6.6282u    700.0374m  
   80.00000p     14.5545u    699.9866m  
   90.00000p     37.9967u    699.9269m  
  100.00000p     19.6886u    699.9721m  
  110.00000p      1.3804u    700.0173m  
  120.00000p    -11.3446u    700.0487m  
  130.00000p     -1.5302u    700.0248m  
  140.00000p      8.2842u    700.0008m  
  150.00000p     18.0985u    699.9769m  
  160.00000p     27.9129u    699.9530m  
  170.00000p     37.7272u    699.9290m  
  180.00000p     36.7861u    699.9313m  
  190.00000p     32.2230u    699.9424m  
  200.00000p     27.6600u    699.9534m  
  210.00000p     23.0969u    699.9645m  
  220.00000p     18.5339u    699.9756m  
  230.00000p     13.9709u    699.9867m  
  240.00000p      9.4078u    699.9977m  
  250.00000p      4.8448u    700.0088m  
  260.00000p      0.         700.0199m  
  270.00000p     -4.2813u    700.0310m  
[...]
    3.65000n     13.6287u    699.9875m  
    3.66000n     13.6287u    699.9875m  
    3.67000n     13.6286u    699.9875m  
    3.68000n     13.6286u    699.9875m  
    3.69000n     13.6285u    699.9875m  
    3.70000n     13.6285u    699.9875m  
    3.71000n     13.6285u    699.9875m  
    3.72000n     13.6284u    699.9875m  
    3.73000n     13.6284u    699.9875m  
    3.74000n     13.6284u    699.9875m  
    3.75000n     13.6284u    699.9875m  
    3.76000n     13.6285u    699.9875m  
    3.77000n     13.6285u    699.9875m  
    3.78000n     13.6285u    699.9875m  
    3.79000n     13.6286u    699.9875m  
    3.80000n     13.6286u    699.9875m  
    3.81000n     13.6287u    699.9875m  
    3.82000n     13.6287u    699.9875m  
    3.83000n     13.6287u    699.9875m  
    3.84000n     13.6288u    699.9875m  
    3.85000n     13.6288u    699.9875m  
    3.86000n     13.6289u    699.9875m  
    3.87000n     13.6289u    699.9875m  
    3.88000n     13.6290u    699.9875m  
    3.89000n     13.6290u    699.9875m  
    3.90000n     13.6290u    699.9875m  
    3.91000n     13.6291u    699.9875m  
    3.92000n     13.6291u    699.9875m  
    3.93000n     13.6292u    699.9875m  
    3.94000n     13.6291u    699.9875m  
    3.95000n     13.6290u    699.9875m  
    3.96000n     13.6289u    699.9875m  
    3.97000n     13.6287u    699.9875m  
    3.98000n     13.6286u    699.9875m  
    3.99000n     13.6285u    699.9875m  
    4.00000n     13.6284u    699.9875m  
y
x

        time    voltage      voltage    
                 outin_11     outin_21  
    0.          699.9875m     13.6328u  
   10.00000p    700.0327m     15.2337u  
   20.00000p    679.5811m     17.7752m  
   30.00000p    480.7728m    188.6447m  
   40.00000p    142.9865m    534.4797m  
   50.00000p    -16.1812m    711.0325m  
   60.00000p      0.         700.0292m  
   70.00000p     -6.6282u    700.0374m  
   80.00000p     14.5545u    699.9866m  
   90.00000p     37.9967u    699.9269m  
  100.00000p     19.6886u    699.9721m  
  110.00000p      1.3804u    700.0173m  
  120.00000p    -11.3446u    700.0487m  
  130.00000p     -1.5302u    700.0248m  
  140.00000p      8.2842u    700.0008m  
  150.00000p     18.0985u    699.9769m  
  160.00000p     27.9129u    699.9530m  
  170.00000p     37.7272u    699.9290m  
  180.00000p     36.7861u    699.9313m  
  190.00000p     32.2230u    699.9424m  
  200.00000p     27.6600u    699.9534m  
  210.00000p     23.0969u    699.9645m  
  220.00000p     18.5339u    699.9756m  
  230.00000p     13.9709u    699.9867m  
  240.00000p      9.4078u    699.9977m  
  250.00000p      4.8448u    700.0088m  
  260.00000p      0.         700.0199m  
  270.00000p     -4.2813u    700.0310m  
  280.00000p     -8.8444u    700.0420m  
  290.00000p    -12.3537u    700.0506m  
  300.00000p     -9.4827u    700.0436m  
  310.00000p     -6.6118u    700.0366m  
  320.00000p     -3.7408u    700.0297m  
  330.00000p   -869.8801n    700.0227m  
  340.00000p      2.0011u    700.0158m  
  350.00000p      4.8720u    700.0088m  
  360.00000p      7.7430u    700.0019m  
  370.00000p     10.6139u    699.9949m  
  380.00000p     13.4848u    699.9880m  
  390.00000p     16.3558u    699.9810m  
  400.00000p     19.2267u    699.9741m  
  410.00000p     22.0977u    699.9671m  
  420.00000p     24.9686u    699.9602m  
  430.00000p     27.8396u    699.9532m  
  440.00000p     30.7105u    699.9463m  
  450.00000p     33.5814u    699.9393m  
  460.00000p     36.4524u    699.9324m  
  470.00000p     39.3233u    699.9254m  
  480.00000p     37.8221u    699.9290m  
  490.00000p     35.1997u    699.9354m  
  500.00000p     32.5773u    699.9417m  
  510.00000p     29.9549u    699.9481m  
  520.00000p     27.3325u    699.9544m  
  530.00000p     24.7101u    699.9607m  
  540.00000p     22.0877u    699.9671m  
  550.00000p     19.4653u    699.9734m  
  560.00000p     16.8428u    699.9798m  
  570.00000p     14.2204u    699.9861m  
  580.00000p     11.5980u    699.9924m  
  590.00000p      8.9756u    699.9988m  
  600.00000p      6.3532u    700.0051m  
  610.00000p      3.7308u    700.0115m  
  620.00000p      1.1084u    700.0178m  
  630.00000p     -1.5140u    700.0241m  
  640.00000p     -4.1364u    700.0305m  
  650.00000p     -6.7588u    700.0368m  
  660.00000p     -9.3812u    700.0432m  
  670.00000p    -12.0036u    700.0495m  
  680.00000p    -10.4602u    700.0458m  
  690.00000p     -7.8486u    700.0395m  
  700.00000p     -5.2369u    700.0332m  
  710.00000p     -2.6253u    700.0269m  
  720.00000p      0.         700.0206m  
  730.00000p      2.5979u    700.0143m  
  740.00000p      5.2096u    700.0080m  
  750.00000p      7.8212u    700.0016m  
  760.00000p     10.4328u    699.9953m  
  770.00000p     13.0445u    699.9890m  
  780.00000p     15.6561u    699.9827m  
  790.00000p     18.2677u    699.9764m  
  800.00000p     20.8793u    699.9701m  
  810.00000p     23.4910u    699.9638m  
  820.00000p     26.1026u    699.9575m  
  830.00000p     28.7142u    699.9512m  
  840.00000p     31.3259u    699.9449m  
  850.00000p     33.9375u    699.9386m  
  860.00000p     36.5491u    699.9323m  
  870.00000p     39.1607u    699.9260m  
  880.00000p     37.3681u    699.9303m  
  890.00000p     34.4461u    699.9373m  
  900.00000p     31.5241u    699.9444m  
  910.00000p     28.6021u    699.9514m  
  920.00000p     25.6801u    699.9585m  
  930.00000p     22.7581u    699.9655m  
  940.00000p     19.8361u    699.9726m  
  950.00000p     16.9141u    699.9796m  
  960.00000p     13.9921u    699.9867m  
  970.00000p     11.0702u    699.9937m  
  980.00000p      8.1482u    700.0008m  
  990.00000p      5.2262u    700.0078m  
    1.00000n      2.3042u    700.0148m  
    1.01000n   -617.8367n    700.0219m  
    1.02000n     -3.5398u    700.0289m  
    1.03000n     -6.4618u    700.0360m  
    1.04000n     -9.3838u    700.0430m  
    1.05000n    -12.3058u    700.0501m  
    1.06000n     14.1347u    699.9869m  
    1.07000n     15.3559u    699.9839m  
    1.08000n     12.6997u    699.9892m  
    1.09000n     13.7237u    699.9874m  
    1.10000n     13.2138u    699.9882m  
    1.11000n     13.6321u    699.9876m  
    1.12000n     13.6343u    699.9876m  
    1.13000n     13.6322u    699.9876m  
    1.14000n     13.6324u    699.9876m  
    1.15000n     13.6334u    699.9876m  
    1.16000n     13.6343u    699.9876m  
    1.17000n     13.6348u    699.9876m  
    1.18000n     13.6344u    699.9876m  
    1.19000n     13.6339u    699.9876m  
    1.20000n     13.6334u    699.9876m  
    1.21000n     13.6329u    699.9876m  
    1.22000n     13.6325u    699.9876m  
    1.23000n     13.6320u    699.9876m  
    1.24000n     13.6317u    699.9876m  
    1.25000n     13.6319u    699.9876m  
    1.26000n     13.6322u    699.9876m  
    1.27000n     13.6324u    699.9876m  
    1.28000n     13.6327u    699.9876m  
    1.29000n     13.6329u    699.9876m  
    1.30000n     13.6331u    699.9876m  
    1.31000n     13.6334u    699.9876m  
    1.32000n     13.6336u    699.9876m  
    1.33000n     13.6339u    699.9876m  
    1.34000n     13.6341u    699.9876m  
    1.35000n     13.6344u    699.9876m  
    1.36000n     13.6346u    699.9876m  
    1.37000n     13.6348u    699.9876m  
    1.38000n     13.6349u    699.9876m  
    1.39000n     13.6348u    699.9876m  
    1.40000n     13.6346u    699.9876m  
    1.41000n     13.6344u    699.9876m  
    1.42000n     13.6343u    699.9876m  
    1.43000n     13.6341u    699.9876m  
    1.44000n     13.6339u    699.9876m  
    1.45000n     13.6338u    699.9876m  
    1.46000n     13.6336u    699.9876m  
    1.47000n     13.6334u    699.9876m  
    1.48000n     13.6333u    699.9876m  
    1.49000n     13.6331u    699.9876m  
    1.50000n     13.6329u    699.9876m  
    1.51000n     13.6328u    699.9876m  
    1.52000n     13.6326u    699.9876m  
    1.53000n     13.6324u    699.9876m  
    1.54000n     13.6323u    699.9876m  
    1.55000n     13.6321u    699.9876m  
    1.56000n     13.6319u    699.9876m  
    1.57000n     13.6318u    699.9876m  
    1.58000n     13.6317u    699.9876m  
    1.59000n     13.6319u    699.9876m  
    1.60000n     13.6320u    699.9876m  
    1.61000n     13.6322u    699.9876m  
    1.62000n     13.6324u    699.9876m  
    1.63000n     13.6325u    699.9876m  
    1.64000n     13.6327u    699.9876m  
    1.65000n     13.6329u    699.9876m  
    1.66000n     13.6330u    699.9876m  
    1.67000n     13.6332u    699.9876m  
    1.68000n     13.6334u    699.9876m  
    1.69000n     13.6335u    699.9876m  
    1.70000n     13.6337u    699.9876m  
    1.71000n     13.6339u    699.9876m  
    1.72000n     13.6340u    699.9876m  
    1.73000n     13.6342u    699.9876m  
    1.74000n     13.6344u    699.9876m  
    1.75000n     13.6346u    699.9876m  
    1.76000n     13.6347u    699.9876m  
    1.77000n     13.6349u    699.9876m  
    1.78000n     13.6350u    699.9876m  
    1.79000n     13.6348u    699.9876m  
    1.80000n     13.6346u    699.9876m  
    1.81000n     13.6344u    699.9876m  
    1.82000n     13.6343u    699.9876m  
    1.83000n     13.6341u    699.9876m  
    1.84000n     13.6339u    699.9876m  
    1.85000n     13.6338u    699.9876m  
    1.86000n     13.6336u    699.9876m  
    1.87000n     13.6334u    699.9876m  
    1.88000n     13.6333u    699.9876m  
    1.89000n     13.6331u    699.9876m  
    1.90000n     13.6329u    699.9876m  
    1.91000n     13.6328u    699.9876m  
    1.92000n     13.6326u    699.9876m  
    1.93000n     13.6324u    699.9876m  
    1.94000n     13.6323u    699.9876m  
    1.95000n     13.6321u    699.9876m  
    1.96000n     13.6319u    699.9876m  
    1.97000n     13.6317u    699.9876m  
    1.98000n     13.6321u    699.9876m  
    1.99000n     13.6336u    699.9876m  
    2.00000n     13.6350u    699.9876m  
    2.01000n     13.6328u    699.9876m  
    2.02000n     13.6328u    699.9876m  
    2.03000n     13.6328u    699.9876m  
    2.04000n     13.6328u    699.9876m  
    2.05000n     13.6328u    699.9876m  
    2.06000n     18.2821u    699.9992m  
    2.07000n   -597.8394u    699.9602m  
    2.08000n   -745.1517u    700.2761m  
    2.09000n    617.4958m    109.9360m  
    2.10000n    700.0343m    743.9005n  
    2.11000n    699.9894m     12.7111u  
    2.12000n    699.9889m     14.7914u  
    2.13000n    699.9956m     15.9659u  
    2.14000n    699.9882m     13.6313u  
    2.15000n    699.9808m     11.2968u  
    2.16000n    699.9766m      9.9647u  
    2.17000n    699.9788m     10.7375u  
    2.18000n    699.9811m     11.5103u  
    2.19000n    699.9833m     12.2830u  
    2.20000n    699.9856m     13.0558u  
    2.21000n    699.9879m     13.8286u  
    2.22000n    699.9901m     14.6014u  
    2.23000n    699.9924m     15.3742u  
    2.24000n    699.9947m     16.1469u  
    2.25000n    699.9969m     16.9197u  
    2.26000n    699.9988m     17.5570u  
    2.27000n    699.9977m     17.1589u  
    2.28000n    699.9965m     16.7608u  
    2.29000n    699.9954m     16.3627u  
    2.30000n    699.9943m     15.9646u  
    2.31000n    699.9931m     15.5665u  
    2.32000n    699.9920m     15.1683u  
    2.33000n    699.9909m     14.7702u  
    2.34000n    699.9897m     14.3721u  
    2.35000n    699.9886m     13.9740u  
    2.36000n    699.9875m     13.5759u  
    2.37000n    699.9863m     13.1778u  
    2.38000n    699.9852m     12.7797u  
    2.39000n    699.9841m     12.3816u  
    2.40000n    699.9829m     11.9835u  
    2.41000n    699.9818m     11.5854u  
    2.42000n    699.9807m     11.1873u  
    2.43000n    699.9796m     10.7892u  
    2.44000n    699.9784m     10.3910u  
    2.45000n    699.9773m      9.9929u  
    2.46000n    699.9764m      9.6873u  
    2.47000n    699.9775m     10.0878u  
    2.48000n    699.9786m     10.4883u  
    2.49000n    699.9798m     10.8889u  
    2.50000n    699.9809m     11.2894u  
    2.51000n    699.9820m     11.6900u  
    2.52000n    699.9831m     12.0905u  
    2.53000n    699.9842m     12.4910u  
    2.54000n    699.9854m     12.8916u  
    2.55000n    699.9865m     13.2921u  
    2.56000n    699.9876m     13.6927u  
    2.57000n    699.9887m     14.0932u  
    2.58000n    699.9898m     14.4937u  
    2.59000n    699.9909m     14.8943u  
    2.60000n    699.9921m     15.2948u  
    2.61000n    699.9932m     15.6954u  
    2.62000n    699.9943m     16.0959u  
    2.63000n    699.9954m     16.4964u  
    2.64000n    699.9965m     16.8970u  
    2.65000n    699.9976m     17.2975u  
    2.66000n    699.9985m     17.6051u  
    2.67000n    699.9974m     17.2022u  
    2.68000n    699.9963m     16.7993u  
    2.69000n    699.9952m     16.3963u  
    2.70000n    699.9941m     15.9934u  
    2.71000n    699.9930m     15.5905u  
    2.72000n    699.9919m     15.1876u  
    2.73000n    699.9908m     14.7847u  
    2.74000n    699.9897m     14.3818u  
    2.75000n    699.9886m     13.9789u  
    2.76000n    699.9875m     13.5759u  
    2.77000n    699.9864m     13.1730u  
    2.78000n    699.9853m     12.7701u  
    2.79000n    699.9842m     12.3672u  
    2.80000n    699.9831m     11.9643u  
    2.81000n    699.9820m     11.5614u  
    2.82000n    699.9809m     11.1585u  
    2.83000n    699.9798m     10.7555u  
    2.84000n    699.9787m     10.3526u  
    2.85000n    699.9776m      9.9497u  
    2.86000n    699.9767m      9.6425u  
    2.87000n    699.9779m     10.0665u  
    2.88000n    699.9790m     10.4906u  
    2.89000n    699.9801m     10.9146u  
    2.90000n    699.9813m     11.3386u  
    2.91000n    699.9824m     11.7627u  
    2.92000n    699.9835m     12.1867u  
    2.93000n    699.9847m     12.6107u  
    2.94000n    699.9858m     13.0348u  
    2.95000n    699.9870m     13.4588u  
    2.96000n    699.9881m     13.8828u  
    2.97000n    699.9892m     14.3069u  
    2.98000n    699.9904m     14.7309u  
    2.99000n    699.9915m     15.1549u  
    3.00000n    699.9926m     15.5789u  
    3.01000n    699.9938m     16.0030u  
    3.02000n    699.9949m     16.4270u  
    3.03000n    699.9960m     16.8510u  
    3.04000n    699.9972m     17.2751u  
    3.05000n    699.9983m     17.6991u  
    3.06000n    699.9875m     13.6128u  
    3.07000n    699.9864m     13.7671u  
    3.08000n    699.9880m     13.6082u  
    3.09000n    699.9873m     13.6405u  
    3.10000n    699.9876m     13.6868u  
    3.11000n    699.9875m     13.6313u  
    3.12000n    699.9875m     13.6338u  
    3.13000n    699.9875m     13.6326u  
    3.14000n    699.9875m     13.6314u  
    3.15000n    699.9875m     13.6319u  
    3.16000n    699.9875m     13.6323u  
    3.17000n    699.9875m     13.6328u  
    3.18000n    699.9875m     13.6332u  
    3.19000n    699.9875m     13.6337u  
    3.20000n    699.9875m     13.6341u  
    3.21000n    699.9875m     13.6340u  
    3.22000n    699.9875m     13.6338u  
    3.23000n    699.9875m     13.6336u  
    3.24000n    699.9875m     13.6334u  
    3.25000n    699.9875m     13.6332u  
    3.26000n    699.9875m     13.6330u  
    3.27000n    699.9875m     13.6327u  
    3.28000n    699.9875m     13.6325u  
    3.29000n    699.9875m     13.6323u  
    3.30000n    699.9875m     13.6321u  
    3.31000n    699.9875m     13.6319u  
    3.32000n    699.9875m     13.6317u  
    3.33000n    699.9875m     13.6315u  
    3.34000n    699.9875m     13.6315u  
    3.35000n    699.9875m     13.6316u  
    3.36000n    699.9875m     13.6318u  
    3.37000n    699.9875m     13.6319u  
    3.38000n    699.9875m     13.6320u  
    3.39000n    699.9875m     13.6322u  
    3.40000n    699.9875m     13.6323u  
    3.41000n    699.9875m     13.6324u  
    3.42000n    699.9875m     13.6326u  
    3.43000n    699.9875m     13.6327u  
    3.44000n    699.9875m     13.6329u  
    3.45000n    699.9875m     13.6330u  
    3.46000n    699.9875m     13.6331u  
    3.47000n    699.9875m     13.6333u  
    3.48000n    699.9875m     13.6334u  
    3.49000n    699.9875m     13.6336u  
    3.50000n    699.9875m     13.6337u  
    3.51000n    699.9875m     13.6338u  
    3.52000n    699.9875m     13.6340u  
    3.53000n    699.9875m     13.6341u  
    3.54000n    699.9875m     13.6341u  
    3.55000n    699.9875m     13.6340u  
    3.56000n    699.9875m     13.6338u  
    3.57000n    699.9875m     13.6337u  
    3.58000n    699.9875m     13.6336u  
    3.59000n    699.9875m     13.6334u  
    3.60000n    699.9875m     13.6333u  
    3.61000n    699.9875m     13.6331u  
    3.62000n    699.9875m     13.6330u  
    3.63000n    699.9875m     13.6329u  
    3.64000n    699.9875m     13.6327u  
    3.65000n    699.9875m     13.6326u  
    3.66000n    699.9875m     13.6324u  
    3.67000n    699.9875m     13.6323u  
    3.68000n    699.9875m     13.6322u  
    3.69000n    699.9875m     13.6320u  
    3.70000n    699.9875m     13.6319u  
    3.71000n    699.9875m     13.6317u  
    3.72000n    699.9875m     13.6316u  
    3.73000n    699.9875m     13.6315u  
    3.74000n    699.9875m     13.6315u  
    3.75000n    699.9875m     13.6316u  
    3.76000n    699.9875m     13.6318u  
    3.77000n    699.9875m     13.6319u  
    3.78000n    699.9875m     13.6320u  
    3.79000n    699.9875m     13.6322u  
    3.80000n    699.9875m     13.6323u  
    3.81000n    699.9875m     13.6325u  
    3.82000n    699.9875m     13.6326u  
    3.83000n    699.9875m     13.6327u  
    3.84000n    699.9875m     13.6329u  
    3.85000n    699.9875m     13.6330u  
    3.86000n    699.9875m     13.6331u  
    3.87000n    699.9875m     13.6333u  
    3.88000n    699.9875m     13.6334u  
    3.89000n    699.9875m     13.6336u  
    3.90000n    699.9875m     13.6337u  
    3.91000n    699.9875m     13.6338u  
    3.92000n    699.9875m     13.6340u  
    3.93000n    699.9875m     13.6341u  
    3.94000n    699.9875m     13.6340u  
    3.95000n    699.9875m     13.6335u  
    3.96000n    699.9875m     13.6331u  
    3.97000n    699.9875m     13.6327u  
    3.98000n    699.9875m     13.6323u  
    3.99000n    699.9875m     13.6318u  
    4.00000n    699.9875m     13.6314u  
y

          ***** job concluded
1****** HSPICE -- F-2011.09-SP2 64-BIT (Feb 27 2012) linux ******               
 ******  
 $this uut was automatically generated by:

  ******  job statistics summary tnom=  25.000 temp=  25.000 *****
  
  
 ******  Machine Information  ******
 CPU:
 model name	: Intel(R) Xeon(R) CPU E5-2650 v4 @ 2.20GHz
 cpu MHz	: 2365.601
  
 OS:
 Linux version 3.10.0-693.17.1.el7.x86_64 (mockbuild@x86-041.build.eng.bos.redha
 t.com) (gcc version 4.8.5 20150623 (Red Hat 4.8.5-16) (GCC) ) #1 SMP Sun Jan 14
  10:36:03 EST 2018


  ******  HSPICE Threads Information  ******

  Command Line Threads Count :     1
  Available CPU Count        :    24
  Actual Threads Count       :     1


  ******  Circuit Statistics  ******
  # nodes       =      46 # elements   =      19
  # resistors   =       0 # capacitors =       0 # inductors   =       0
  # mutual_inds =       0 # vccs       =       0 # vcvs        =       0
  # cccs        =       0 # ccvs       =       0 # volt_srcs   =       3
  # curr_srcs   =       0 # diodes     =       0 # bjts        =       0
  # jfets       =       0 # mosfets    =      16 # U elements  =       0
  # T elements  =       0 # W elements =       0 # B elements  =       0
  # S elements  =       0 # P elements =       0 # va device   =       0
  # vector_srcs =       0


  ******  Runtime Statistics (seconds)  ******

  analysis           time    # points   tot. iter  conv.iter
  op point           0.02           1         122
  transient          0.03         401         378         105 rev=         5
  readin             0.01
  errchk             0.00
  setup              0.00
  output             0.00


           peak memory used        135.46 megabytes
           total cpu time            0.06 seconds
           total elapsed time        0.32 seconds
           job started at     23:40:45 09/12/2020
           job ended   at     23:40:45 09/12/2020


 lic: Release hspice token(s) 
