 ****** HSPICE -- F-2011.09-SP2 64-BIT (Feb 27 2012) linux ******               
  Copyright (C) 2011 Synopsys, Inc. All Rights Reserved.                        
  Unpublished-rights reserved under US copyright laws.
  This program is protected by law and is subject to the
  terms and conditions of the license agreement from Synopsys.
  Use of this program is your acceptance to be bound by the
  license agreement. HSPICE is the trademark of Synopsys, Inc.
  Input File: ptm7hp.sp                                                         
  Command line options: ptm7hp.sp
 lic:  
 lic: FLEXlm: v10.8 
 lic: USER:   iliabautista         HOSTNAME: itn2.rc.usf.edu 
 lic: HOSTID:                      PID:      17655 
 lic: Using FLEXlm license file: 
 lic: 27000@license0.rc.usf.edu 
 lic: Checkout 1 hspice 
 lic: License/Maintenance for hspice will expire on 18-jul-2021/2019.06 
 lic: 1(in_use)/50(total) FLOATING license(s) on SERVER license0.rc.usf.edu 
 lic:   
  **warning** (../modelfiles/hp/7nfet.pm:4) Model nfet device geometries will not be checked against the limits set by lmin, lmax, nfinmin and nfinmax. To enable this check, add a period(.) to the model name(i.e. enable model selector).
1****** HSPICE -- F-2011.09-SP2 64-BIT (Feb 27 2012) linux ******               
 ******  
 $this uut was automatically generated by:

  ******  circuit name directory
 circuit number to circuit name directory
   number circuitname                     definition         multiplier
        0 main circuit
        1 xinput_0.                       inverter           1.00 
        2 xinput_1.                       inverter           1.00 
        3 xinput_2.                       inverter           1.00 
        4 xinverter00.                    inverter           1.00 
        5 xinverter10.                    inverter           1.00 
        6 xinverter20.                    inverter           1.00 
        7 xinverter01.                    inverter           1.00 
        8 xinverter11.                    inverter           1.00 
        9 xinverter21.                    inverter           1.00 
       10 xinverter02.                    inverter           1.00 
       11 xinverter12.                    inverter           1.00 
       12 xinverter22.                    inverter           1.00 
       13 xoutput_00.                     inverter           1.00 
       14 xoutput_10.                     inverter           1.00 
       15 xoutput_20.                     inverter           1.00 
       16 xinput_0.xpfet.                 pfet               1.00 
       17 xinput_0.xnfet.                 nfet               1.00 
       18 xinput_1.xpfet.                 pfet               1.00 
       19 xinput_1.xnfet.                 nfet               1.00 
       20 xinput_2.xpfet.                 pfet               1.00 
       21 xinput_2.xnfet.                 nfet               1.00 
       22 xinverter00.xpfet.              pfet               1.00 
       23 xinverter00.xnfet.              nfet               1.00 
       24 xinverter10.xpfet.              pfet               1.00 
       25 xinverter10.xnfet.              nfet               1.00 
       26 xinverter20.xpfet.              pfet               1.00 
       27 xinverter20.xnfet.              nfet               1.00 
       28 xinverter01.xpfet.              pfet               1.00 
       29 xinverter01.xnfet.              nfet               1.00 
       30 xinverter11.xpfet.              pfet               1.00 
       31 xinverter11.xnfet.              nfet               1.00 
       32 xinverter21.xpfet.              pfet               1.00 
       33 xinverter21.xnfet.              nfet               1.00 
       34 xinverter02.xpfet.              pfet               1.00 
       35 xinverter02.xnfet.              nfet               1.00 
       36 xinverter12.xpfet.              pfet               1.00 
       37 xinverter12.xnfet.              nfet               1.00 
       38 xinverter22.xpfet.              pfet               1.00 
       39 xinverter22.xnfet.              nfet               1.00 
       40 xoutput_00.xpfet.               pfet               1.00 
       41 xoutput_00.xnfet.               nfet               1.00 
       42 xoutput_10.xpfet.               pfet               1.00 
       43 xoutput_10.xnfet.               nfet               1.00 
       44 xoutput_20.xpfet.               pfet               1.00 
       45 xoutput_20.xnfet.               nfet               1.00 
1****** HSPICE -- F-2011.09-SP2 64-BIT (Feb 27 2012) linux ******               
 ******  
 $this uut was automatically generated by:

  ******  mos   model parameters tnom=  25.000 temp=  25.000 *****
 Model Name: pfet 
 BSIM-MG BULK Model(Level72)
   VERSION = 105.03  
   DEVTYPE = -1 
   BULKMOD = 1  
   COREMOD = 0 
   GEOMOD = 1 
   RDSMOD = 1 
   IGCMOD = 1 
   IGBMOD = 1 
   GIDLMOD = 0 
   IIMOD = 0 
   NQSMOD = 0 
   SHMOD = 0 
   RGATEMOD = 0 
   RGEOMOD = 1 
   CGEOMOD = 2 
   CAPMOD = 0 
   LINT =  2e-10 m
   LL =      0 m^(LLN+1)
   LLN =      1 
   DLC =      0 m
   DLBIN =      0 
   LLC =      0 m^(LLN+1)
   EOT = 6.2e-10 m
   TOXP = 1.15e-09 m
   EOTBOX = 1.4e-07 m
   HFIN = 1.8e-08 m
   FECH =      1 
   DELTAW =      0 m
   FECHCV =      1 
   DELTAWCV =      0 m
   NBODY =  1e+22 m^-3
   NSD =  3e+26 m^-3
   PHIG =  4.747 eV
   EPSROX =    3.9 
   EPSRSUB =   11.9 
   EASUB =   4.05 eV
   NI0SUB = 1.1e+16 m^-3
   BG0SUB =   1.12 eV
   NC0SUB = 2.86e+25 m^-3
   NGATE =      0 m^-3
   CIT = 1.3e-05 F/m^2
   CDSC =  0.039 F/m^2
   CDSCD =  0.007 F/m^2
   CDSCDR =  0.007 
   DVT0 =   0.01 
   DVT1 =   0.69 
   PHIN =   0.05 V
   ETA0 =   0.97 
   ETA0R =   0.97 
   DSUB =    0.9 
   K1RSCE =      0 V^1/2
   LPE0 =  5e-09 m
   DVTSHIFT =      0 
   QMFACTOR =      0 
   QMTCENIV =      0 
   QMTCENCV =      0 
   AQMTCEN =      0 
   BQMTCEN = 1.2e-08 
   ETAQM =   0.54 
   QM0 = 0.001143 
   PQM =   0.66 
   QM0ACC =  0.001 
   PQMACC =   0.66 
   VSAT = 1.53e+05 
   AVSAT =      0 
   BVSAT =  1e-07 
   VSAT1 = 1.53e+05 
   AVSAT1 =      0 
   BVSAT1 =  1e-07 
   DELTAVSAT =      1 
   KSATIV =    0.8 
   MEXP =      3 
   AMEXP =      0 
   BMEXP =      1 
   PTWG =      0 
   APTWG =      0 
   BPTWG =  1e-07 
   AT = -0.00156 
   TMEXP =      0 
   PTWGT =  0.004 
   U0 =  0.042 
   ETAMOB =      2 
   UP =      0 
   LPA =      1 
   UA =    0.3 
   AUA =      0 
   BUA =  1e-07 
   EU =    1.8 
   AEU =      0 
   BEU =  1e-07 
   UD =      0 
   AUD =      0 
   BUD =  5e-08 
   UCS =      0 
   UTE =      0 
   UTL = -0.0015 
   UA1 = 0.001032 
   UD1 =      0 
   UCSTE = -0.00478 
   RDSWMIN =      0 
   RDSW =    100 
   ARDSW =      0 
   BRDSW =  1e-07 
   RSWMIN =      0 
   RSW =      0 
   ARSW =      0 
   BRSW =  1e-07 
   RDWMIN =      0 
   RDW =      0 
   ARDW =      0 
   BRDW =  1e-07 
   PRWG =      0 
   WR =      1 
   PRT =  0.001 
   PDIBL1 =    1.3 
   PDIBL2 = 0.0002 
   DROUT =   1.06 
   PVAG =      1 
   PCLM =    0.2 
   APCLM =      0 
   BPCLM =  1e-07 
   PCLMG =      0 
   VASAT =    0.6 
   PCLMCV =  0.013 
   PCLMGCV =      0 
   VASATCV =    0.2 
   RGEXT =      0 ohm
   RGFIN =  0.001 ohm
   RSHS =      0 ohm
   RSHD =      0 ohm
   HEPI =  8e-09 m
   TSILI =  7e-09 m
   RHOC =  5e-13 ohm/m^2
   RHORSD =      1 ohm/m
   RHOEXT =      1 ohm/m
   CRATIO =    0.5 
   DELTAPRSD =      0 m
   SDTERM = 0 
   LSP = 2.2e-09 m
   LDG =  2e-09 m
   EPSRSP =    3.9 
   TGATE = 7.5e-09 m
   TMASK =      0 m
   ASILIEND =      0 m^2
   ARSDEND =      0 m^2
   PRSDEND =      0 m
   NSDE =  9e+25 m^-3
   RGEOA =      1 
   RGEOB =      0 m^-1
   RGEOC =      0 m^-1
   RGEOD =      0 m^-1
   RGEOE =      0 m^-1
   CGEOA =      1 
   CGEOB =      0 m^-1
   CGEOC =      0 m^-1
   CGEOD =      0 m^-1
   CGEOE =      1 
   AIGBINV = 0.0111 (Fs^2/g)^0.5m^-1
   BIGBINV =   0.03 (Fs^2/g)^0.5m^-1
   CIGBINV =  0.006 V^-1
   EIGBINV =    1.1 V
   NIGBINV =    1.2 
   AIGBACC = 0.0149 
   BIGBACC = 0.000949 
   CIGBACC =  0.075 
   NIGBACC =      3 
   AIGC = 0.0136 (Fs^2/g)^0.5m^-1
   BIGC = 0.00171 (Fs^2/g)^0.5m^-1V^-1
   CIGC =  0.075 V^-1
   NIGC =      1 
   DLCIGS =      0 m
   AIGS = 0.0136 (Fs^2/g)^0.5m^-1
   BIGS = 0.00171 (Fs^2/g)^0.5m^-1V^-1
   CIGS =  0.075 V^-1
   DLCIGD =      0 m
   AIGD = 0.0136 (Fs^2/g)^0.5m^-1
   BIGD = 0.00171 (Fs^2/g)^0.5m^-1V^-1
   CIGD =  0.075 V^-1
   POXEDGE =      1 
   AGIDL = 5.729e-12 ohm^-1
   BGIDL =  3e+08 V/m
   EGIDL =    0.1 V
   AGISL = 5.729e-12 ohm^-1
   BGISL =  3e+08 V/m
   EGISL =    0.1 V
   ALPHA0 =      0 mV^-1
   ALPHA1 =      0 V^-1
   BETA0 =     30 V^-1
   ALPHAII =      0 
   BETAII0 =      0 V^-1
   BETAII1 =      0 
   BETAII2 =    0.1 V
   ESATII =  1e+07 V/m
   LII =  5e-10 V/m
   SII0 =    0.5 V^-1
   SII1 =    0.1 
   SII2 =      0 V
   SIID =      0 V
   EOTACC = 6.2e-10 m
   DELVFBACC =      0 V
   CFS = 2.56e-11 F/m
   CFD = 2.65e-11 F/m
   COVS = 2.5e-11 F/m
   COVD = 2.5e-11 F/m
   CGSO =      0 F/m
   CGDO =      0 F/m
   CGSL =      0 F/m
   CGDL =      0 F/m
   CKAPPAS =    0.6 V
   CKAPPAD =    0.6 V
   CGBO =      0 F/m
   CGBL =      0 F/m
   CKAPPAB =    0.6 V
   CSDESW =      0 F/m
   CJS = 0.0005 F/m^2
   CJD = 0.0005 F/m^2
   CJSWS =  5e-10 F/m
   CJSWD =  5e-10 F/m
   CJSWGS =      0 F/m
   CJSWGD =      0 F/m
   PBS =      1 V
   PBD =      1 V
   PBSWS =      1 V
   PBSWD =      1 V
   PBSWGS =      1 V
   PBSWGD =      1 V
   MJS, =    0.5 
   MJD =    0.5 
   MJSWS =   0.33 
   MJSWD =   0.33 
   MJSWGS =   0.33 
   MJSWGD =   0.33 
   SJS =      0 
   SJD =      0 
   SJSWS =      0 
   SJSWD =      0 
   SJSWGS =      0 
   SJSWGD =      0 
   MJS2 =  0.125 
   MJD2 =  0.125 
   MJSWS2 =   0.33 
   MJSWD2 =   0.33 
   MJSWGS2 =   0.33 
   MJSWGD2 =   0.33 
   JSS = 0.0001 A/m^2
   JSD = 0.0001 A/m^2
   JSWS =      0 A/m
   JSWD =      0 A/m
   JSWGS =      0 A/m
   JSWGD =      0 A/m
   NJS =      1 
   NJD =      1 
   IJTHSFWD =    0.1 A
   IJTHDFWD =    0.1 A
   IJTHSREV =    0.1 A
   IJTHDREV =    0.1 A
   BVS =     10 V
   BVD =     10 V
   XJBVS =      1 
   XJBVD =      1 
   JTSS =      0 A/m^2
   JTSD =      0 A/m^2
   JTSSWS =      0 A/m
   JTSSWD =      0 A/m
   JTSSWGS =      0 A/m
   JTSSWGD =      0 A/m
   JTWEFF =      0 m
   NJTS =     20 
   NJTSD =     20 
   NJTSSW =     20 
   NJTSSWD =     20 
   NJTSSWG =     20 
   NJTSSWGD =     20 
   VTSS =     10 V
   VTSD =     10 V
   VTSSWS =     10 V
   VTSSWD =     10 V
   VTSSWGS =     10 V
   VTSSWGD =     10 V
   LINTIGEN =      0 m
   NTGEN =      1 
   AIGEN =      0 m^-3V^-1
   BIGEN =      0 m^-3V^-3
   XRCRG1 =     12 
   XRCRG2 =      1 
   NSEG = 5 
   EF =      1 
   EM = 4.1e+07 V/m
   NOIA = 6.25e+39 eV^-1s^1-EFm^-3
   NOIB = 3.125e+24 eV^-1s^1-EFm^-1
   NOIC = 8.75e+07 eV^-1s^1-EFm
   NTNOI =      1 
   TNOM =  300.1 K
   TBGASUB = 0.000702 eV/K
   TBGBSUB =   1108 K
   KT1 =      0 V
   KT1L =      0 Vm
   IIT =   -0.5 
   TII =      0 
   TGIDL = -0.0003 K^-1
   IGT =    2.5 
   TCJ =      0 K^-1
   TCJSW =      0 K^-1
   TCJSWG =      0 K^-1
   TPB =      0 K^-1
   TPBSW =      0 K^-1
   TPBSWG =      0 K^-1
   XTIS =      3 
   XTID =      3 
   XTSS =   0.02 
   XTSD =   0.02 
   XTSSWS =   0.02 
   XTSSWD =   0.02 
   XTSSWGS =   0.02 
   XTSSWGD =   0.02 
   TNJTS =      0 
   TNJTSD =      0 
   TNJTSSW =      0 
   TNJTSSWD =      0 
   TNJTSSWG =      0 
   TNJTSSWGD =      0 
   RTH0 =   0.01 ohm
   CTH0 =  1e-05 F
   WTH0 =      0 m
   LNBODY =      0 
   NNBODY =      0 
   PNBODY =      0 
   LPHIG =      0 
   NPHIG =      0 
   PPHIG =      0 
   LNGATE =      0 
   NNGATE =      0 
   PNGATE =      0 
   LCIT =      0 
   NCIT =      0 
   PCIT =      0 
   LCDSC =      0 
   NCDSC =      0 
   PCDSC =      0 
   LCDSCD =      0 
   NCDSCD =      0 
   PCDSCD =      0 
   LCDSCDR =      0 
   NCDSCDR =      0 
   PCDSCDR =      0 
   LDVT0 =      0 
   NDVT0 =      0 
   PDVT0 =      0 
   LDVT1 =      0 
   NDVT1 =      0 
   PDVT1 =      0 
   LPHIN =      0 
   NPHIN =      0 
   PPHIN =      0 
   LETA0 =      0 
   NETA0 =      0 
   PETA0 =      0 
   LETA0R =      0 
   NETA0R =      0 
   PETA0R =      0 
   LDSUB =      0 
   NDSUB =      0 
   PDSUB =      0 
   LK1RSCE =      0 
   NK1RSCE =      0 
   PK1RSCE =      0 
   LLPE0 =      0 
   NLPE0 =      0 
   PLPE0 =      0 
   LQMFACTOR =      0 
   NQMFACTOR =      0 
   PQMFACTOR =      0 
   LQMTCENIV =      0 
   NQMTCENIV =      0 
   PQMTCENIV =      0 
   LQMTCENCV =      0 
   NQMTCENCV =      0 
   PQMTCENCV =      0 
   LVSAT =      0 
   NVSAT =      0 
   PVSAT =      0 
   LKSATIV =      0 
   NKSATIV =      0 
   PKSATIV =      0 
   LMEXP =      0 
   NMEXP =      0 
   PMEXP =      0 
   LPTWG =      0 
   NPTWG =      0 
   PPTWG =      0 
   LTHETASAT =      0 
   NTHETASAT =      0 
   PTHETASAT =      0 
   LU0 =      0 
   NU0 =      0 
   PU0 =      0 
   LUP =      0 
   NUP =      0 
   PUP =      0 
   LUA =      0 
   NUA =      0 
   PUA =      0 
   LEU =      0 
   NEU =      0 
   PEU =      0 
   LUD =      0 
   NUD =      0 
   PUD =      0 
   LUCS =      0 
   NUCS =      0 
   PUCS =      0 
   LPCLM =      0 
   NPCLM =      0 
   PPCLM =      0 
   LPCLMCV =      0 
   NPCLMCV =      0 
   PPCLMCV =      0 
   LRDSW =      0 
   NRDSW =      0 
   PRDSW =      0 
   LRSW =      0 
   NRSW =      0 
   PRSW =      0 
   LRDW =      0 
   NRDW =      0 
   PRDW =      0 
   LPRWG =      0 
   NPRWG =      0 
   PPRWG =      0 
   LWR =      0 
   NWR =      0 
   PWR =      0 
   LPDIBL1 =      0 
   NPDIBL1 =      0 
   PPDIBL1 =      0 
   LPDIBL2 =      0 
   NPDIBL2 =      0 
   PPDIBL2 =      0 
   LDROUT =      0 
   NDROUT =      0 
   PDROUT =      0 
   LPVAG =      0 
   NPVAG =      0 
   PPVAG =      0 
   LAIGBINV =      0 
   NAIGBINV =      0 
   PAIGBINV =      0 
   LBIGBINV =      0 
   NBIGBINV =      0 
   PBIGBINV =      0 
   LCIGBINV =      0 
   NCIGBINV =      0 
   PCIGBINV =      0 
   LEIGBINV =      0 
   NEIGBINV =      0 
   PEIGBINV =      0 
   LNIGBINV =      0 
   NNIGBINV =      0 
   PNIGBINV =      0 
   LAIGC =      0 
   NAIGC =      0 
   PAIGC =      0 
   LBIGC =      0 
   NBIGC =      0 
   PBIGC =      0 
   LCIGC =      0 
   NCIGC =      0 
   PCIGC =      0 
   LNIGC =      0 
   NNIGC =      0 
   PNIGC =      0 
   LAIGS =      0 
   NAIGS =      0 
   PAIGS =      0 
   LBIGS =      0 
   NBIGS =      0 
   PBIGS =      0 
   LCIGS =      0 
   NCIGS =      0 
   PCIGS =      0 
   LAIGD =      0 
   NAIGD =      0 
   PAIGD =      0 
   LBIGD =      0 
   NBIGD =      0 
   PBIGD =      0 
   LCIGD =      0 
   NCIGD =      0 
   PCIGD =      0 
   LPOXEDGE =      0 
   NPOXEDGE =      0 
   PPOXEDGE =      0 
   LAGIDL =      0 
   NAGIDL =      0 
   PAGIDL =      0 
   LBGIDL =      0 
   NBGIDL =      0 
   PBGIDL =      0 
   LEGIDL =      0 
   NEGIDL =      0 
   PEGIDL =      0 
   LAGISL =      0 
   NAGISL =      0 
   PAGISL =      0 
   LBGISL =      0 
   NBGISL =      0 
   PBGISL =      0 
   LEGISL =      0 
   NEGISL =      0 
   PEGISL =      0 
   LALPHA0 =      0 
   NALPHA0 =      0 
   PALPHA0 =      0 
   LALPHA1 =      0 
   NALPHA1 =      0 
   PALPHA1 =      0 
   LBETA0 =      0 
   NBETA0 =      0 
   PBETA0 =      0 
   LALPHAII =      0 
   NALPHAII =      0 
   PALPHAII =      0 
   LBETAII0 =      0 
   NBETAII0 =      0 
   PBETAII0 =      0 
   LBETAII1 =      0 
   NBETAII1 =      0 
   PBETAII1 =      0 
   LBETAII2 =      0 
   NBETAII2 =      0 
   PBETAII2 =      0 
   LESATII =      0 
   NESATII =      0 
   PESATII =      0 
   LLII =      0 
   NLII =      0 
   PLII =      0 
   LSII0 =      0 
   NSII0 =      0 
   PSII0 =      0 
   LSII1 =      0 
   NSII1 =      0 
   PSII1 =      0 
   LSII2 =      0 
   NSII2 =      0 
   PSII2 =      0 
   LSIID =      0 
   NSIID =      0 
   PSIID =      0 
   LCFS =      0 
   NCFS =      0 
   PCFS =      0 
   LCFD =      0 
   NCFD =      0 
   PCFD =      0 
   LCOVS =      0 
   NCOVS =      0 
   PCOVS =      0 
   LCOVD =      0 
   NCOVD =      0 
   PCOVD =      0 
   LCGSL =      0 
   NCGSL =      0 
   PCGSL =      0 
   LCGDL =      0 
   NCGDL =      0 
   PCGDL =      0 
   LCKAPPAS =      0 
   NCKAPPAS =      0 
   PCKAPPAS =      0 
   LCKAPPAD =      0 
   NCKAPPAD =      0 
   PCKAPPAD =      0 
   LCGBL =      0 
   NCGBL =      0 
   PCGBL =      0 
   LCKAPPAB =      0 
   NCKAPPAB =      0 
   PCKAPPAB =      0 
   LNTGEN =      0 
   NNTGEN =      0 
   PNTGEN =      0 
   LAIGEN =      0 
   NAIGEN =      0 
   PAIGEN =      0 
   LBIGEN =      0 
   NBIGEN =      0 
   PBIGEN =      0 
   LXRCRG1 =      0 
   NXRCRG1 =      0 
   PXRCRG1 =      0 
   LXRCRG2 =      0 
   NXRCRG2 =      0 
   PXRCRG2 =      0 
   LINTNOI =      0 
   NINTNOI =      0 
   PINTNOI =      0 
   LUTE =      0 
   NUTE =      0 
   PUTE =      0 
   LUTL =      0 
   NUTL =      0 
   PUTL =      0 
   LUA1 =      0 
   NUA1 =      0 
   PUA1 =      0 
   LUD1 =      0 
   NUD1 =      0 
   PUD1 =      0 
   LUCSTE =      0 
   NUCSTE =      0 
   PUCSTE =      0 
   LPTWGT =      0 
   NPTWGT =      0 
   PPTWGT =      0 
   LAT =      0 
   NAT =      0 
   PAT =      0 
   LSTTHETASAT =      0 
   NSTTHETASAT =      0 
   PSTTHETASAT =      0 
   LPRT =      0 
   NPRT =      0 
   PPRT =      0 
   LIIT =      0 
   NIIT =      0 
   PIIT =      0 
   LTII =      0 
   NTII =      0 
   PTII =      0 
   LTGIDL =      0 
   NTGIDL =      0 
   PTGIDL =      0 
   LIGT =      0 
   NIGT =      0 
   PIGT =      0 
   L = 1.1e-08 m
   D =  4e-08 m
   TFIN = 6.5e-09 m
   FPITCH = 2.2e-08 m
   NF = 1 
   NFIN = 1 
   NGCON = 1 
   ASEO =      0 m^2
   ADEO =      0 m^2
   PSEO =      0 m
   PDEO =      0 m
   ASEJ =      0 m^2
   ADEJ =      0 m^2
   PSEJ =      0 m
   PDEJ =      0 m
   CGSP =      0 F
   CGDP =      0 F
   CDSP =      0 F
   NRS =      0 
   NRD =      0 
   LRSD = 1.1e-08 m
   XL =      0 m
   DELVTRAND =      0 
   U0MULT =      1 
   IDS0MULT =      1 
   Lmin =  1e-08 m
   Lmax =  3e-08 m
   NFINmin = 0 
   NFINmax = 1 
   LVSAT1 =      0 
   NVSAT1 =      0 
   PVSAT1 =      0 
   LETAMOB =      0 
   NETAMOB =      0 
   PETAMOB =      0 
   LPCLMG =      0 
   NPCLMG =      0 
   PPCLMG =      0 
   LVASAT =      0 
   NVASAT =      0 
   PVASAT =      0 
   LAIGBACC =      0 
   NAIGBACC =      0 
   PAIGBACC =      0 
   LBIGBACC =      0 
   NBIGBACC =      0 
   PBIGBACC =      0 
   LCIGBACC =      0 
   NCIGBACC =      0 
   PCIGBACC =      0 
   LNIGBACC =      0 
   NNIGBACC =      0 
   PNIGBACC =      0 
 Model Name: nfet 
 BSIM-MG BULK Model(Level72)
   VERSION = 105.03  
   DEVTYPE = 1 
   BULKMOD = 1  
   COREMOD = 0 
   GEOMOD = 1 
   RDSMOD = 1 
   IGCMOD = 1 
   IGBMOD = 1 
   GIDLMOD = 0 
   IIMOD = 0 
   NQSMOD = 0 
   SHMOD = 0 
   RGATEMOD = 0 
   RGEOMOD = 1 
   CGEOMOD = 2 
   CAPMOD = 0 
   LINT =  2e-10 m
   LL =      0 m^(LLN+1)
   LLN =      1 
   DLC =      0 m
   DLBIN =      0 
   LLC =      0 m^(LLN+1)
   EOT = 6.2e-10 m
   TOXP = 1.15e-09 m
   EOTBOX = 1.4e-07 m
   HFIN = 1.8e-08 m
   FECH =      1 
   DELTAW =      0 m
   FECHCV =      1 
   DELTAWCV =      0 m
   NBODY =  1e+22 m^-3
   NSD =  3e+26 m^-3
   PHIG =  4.424 eV
   EPSROX =    3.9 
   EPSRSUB =   11.9 
   EASUB =   4.05 eV
   NI0SUB = 1.1e+16 m^-3
   BG0SUB =   1.12 eV
   NC0SUB = 2.86e+25 m^-3
   NGATE =      0 m^-3
   CIT = 1.3e-05 F/m^2
   CDSC =  0.039 F/m^2
   CDSCD =  0.007 F/m^2
   CDSCDR =  0.007 
   DVT0 =   0.01 
   DVT1 =   0.69 
   PHIN =   0.05 V
   ETA0 = 0.6785 
   ETA0R = 0.6785 
   DSUB =    0.9 
   K1RSCE =      0 V^1/2
   LPE0 =  5e-09 m
   DVTSHIFT =      0 
   QMFACTOR =      0 
   QMTCENIV =      0 
   QMTCENCV =      0 
   AQMTCEN =      0 
   BQMTCEN = 1.2e-08 
   ETAQM =   0.54 
   QM0 = 0.001143 
   PQM =   0.66 
   QM0ACC =  0.001 
   PQMACC =   0.66 
   VSAT = 1.6e+05 
   AVSAT =      0 
   BVSAT =  1e-07 
   VSAT1 = 1.6e+05 
   AVSAT1 =      0 
   BVSAT1 =  1e-07 
   DELTAVSAT =      1 
   KSATIV =    0.8 
   MEXP =      3 
   AMEXP =      0 
   BMEXP =      1 
   PTWG =      0 
   APTWG =      0 
   BPTWG =  1e-07 
   AT = -0.00156 
   TMEXP =      0 
   PTWGT =  0.004 
   U0 =  0.065 
   ETAMOB =      2 
   UP =      0 
   LPA =      1 
   UA =    0.3 
   AUA =      0 
   BUA =  1e-07 
   EU =    1.8 
   AEU =      0 
   BEU =  1e-07 
   UD =      0 
   AUD =      0 
   BUD =  5e-08 
   UCS =      0 
   UTE =      0 
   UTL = -0.0015 
   UA1 = 0.001032 
   UD1 =      0 
   UCSTE = -0.00478 
   RDSWMIN =      0 
   RDSW =    100 
   ARDSW =      0 
   BRDSW =  1e-07 
   RSWMIN =      0 
   RSW =      0 
   ARSW =      0 
   BRSW =  1e-07 
   RDWMIN =      0 
   RDW =      0 
   ARDW =      0 
   BRDW =  1e-07 
   PRWG =      0 
   WR =      1 
   PRT =  0.001 
   PDIBL1 =    1.3 
   PDIBL2 = 0.0002 
   DROUT =   1.06 
   PVAG =      1 
   PCLM =    0.2 
   APCLM =      0 
   BPCLM =  1e-07 
   PCLMG =      0 
   VASAT =    0.6 
   PCLMCV =  0.013 
   PCLMGCV =      0 
   VASATCV =    0.2 
   RGEXT =      0 ohm
   RGFIN =  0.001 ohm
   RSHS =      0 ohm
   RSHD =      0 ohm
   HEPI =  8e-09 m
   TSILI =  7e-09 m
   RHOC =  4e-13 ohm/m^2
   RHORSD =      1 ohm/m
   RHOEXT =      1 ohm/m
   CRATIO =    0.5 
   DELTAPRSD =      0 m
   SDTERM = 0 
   LSP = 2.2e-09 m
   LDG =  2e-09 m
   EPSRSP =    3.9 
   TGATE = 7.5e-09 m
   TMASK =      0 m
   ASILIEND =      0 m^2
   ARSDEND =      0 m^2
   PRSDEND =      0 m
   NSDE =  9e+25 m^-3
   RGEOA =      1 
   RGEOB =      0 m^-1
   RGEOC =      0 m^-1
   RGEOD =      0 m^-1
   RGEOE =      0 m^-1
   CGEOA =      1 
   CGEOB =      0 m^-1
   CGEOC =      0 m^-1
   CGEOD =      0 m^-1
   CGEOE =      1 
   AIGBINV = 0.0111 (Fs^2/g)^0.5m^-1
   BIGBINV =   0.03 (Fs^2/g)^0.5m^-1
   CIGBINV =  0.006 V^-1
   EIGBINV =    1.1 V
   NIGBINV =    1.2 
   AIGBACC = 0.0149 
   BIGBACC = 0.000949 
   CIGBACC =  0.075 
   NIGBACC =      3 
   AIGC = 0.0136 (Fs^2/g)^0.5m^-1
   BIGC = 0.00171 (Fs^2/g)^0.5m^-1V^-1
   CIGC =  0.075 V^-1
   NIGC =      1 
   DLCIGS =      0 m
   AIGS = 0.0136 (Fs^2/g)^0.5m^-1
   BIGS = 0.00171 (Fs^2/g)^0.5m^-1V^-1
   CIGS =  0.075 V^-1
   DLCIGD =      0 m
   AIGD = 0.0136 (Fs^2/g)^0.5m^-1
   BIGD = 0.00171 (Fs^2/g)^0.5m^-1V^-1
   CIGD =  0.075 V^-1
   POXEDGE =      1 
   AGIDL = 5.729e-12 ohm^-1
   BGIDL =  3e+08 V/m
   EGIDL =    0.1 V
   AGISL = 5.729e-12 ohm^-1
   BGISL =  3e+08 V/m
   EGISL =    0.1 V
   ALPHA0 =      0 mV^-1
   ALPHA1 =      0 V^-1
   BETA0 =     30 V^-1
   ALPHAII =      0 
   BETAII0 =      0 V^-1
   BETAII1 =      0 
   BETAII2 =    0.1 V
   ESATII =  1e+07 V/m
   LII =  5e-10 V/m
   SII0 =    0.5 V^-1
   SII1 =    0.1 
   SII2 =      0 V
   SIID =      0 V
   EOTACC = 6.2e-10 m
   DELVFBACC =      0 V
   CFS = 2.56e-11 F/m
   CFD = 2.65e-11 F/m
   COVS = 2.5e-11 F/m
   COVD = 2.5e-11 F/m
   CGSO =      0 F/m
   CGDO =      0 F/m
   CGSL =      0 F/m
   CGDL =      0 F/m
   CKAPPAS =    0.6 V
   CKAPPAD =    0.6 V
   CGBO =      0 F/m
   CGBL =      0 F/m
   CKAPPAB =    0.6 V
   CSDESW =      0 F/m
   CJS = 0.0005 F/m^2
   CJD = 0.0005 F/m^2
   CJSWS =  5e-10 F/m
   CJSWD =  5e-10 F/m
   CJSWGS =      0 F/m
   CJSWGD =      0 F/m
   PBS =      1 V
   PBD =      1 V
   PBSWS =      1 V
   PBSWD =      1 V
   PBSWGS =      1 V
   PBSWGD =      1 V
   MJS, =    0.5 
   MJD =    0.5 
   MJSWS =   0.33 
   MJSWD =   0.33 
   MJSWGS =   0.33 
   MJSWGD =   0.33 
   SJS =      0 
   SJD =      0 
   SJSWS =      0 
   SJSWD =      0 
   SJSWGS =      0 
   SJSWGD =      0 
   MJS2 =  0.125 
   MJD2 =  0.125 
   MJSWS2 =   0.33 
   MJSWD2 =   0.33 
   MJSWGS2 =   0.33 
   MJSWGD2 =   0.33 
   JSS = 0.0001 A/m^2
   JSD = 0.0001 A/m^2
   JSWS =      0 A/m
   JSWD =      0 A/m
   JSWGS =      0 A/m
   JSWGD =      0 A/m
   NJS =      1 
   NJD =      1 
   IJTHSFWD =    0.1 A
   IJTHDFWD =    0.1 A
   IJTHSREV =    0.1 A
   IJTHDREV =    0.1 A
   BVS =     10 V
   BVD =     10 V
   XJBVS =      1 
   XJBVD =      1 
   JTSS =      0 A/m^2
   JTSD =      0 A/m^2
   JTSSWS =      0 A/m
   JTSSWD =      0 A/m
   JTSSWGS =      0 A/m
   JTSSWGD =      0 A/m
   JTWEFF =      0 m
   NJTS =     20 
   NJTSD =     20 
   NJTSSW =     20 
   NJTSSWD =     20 
   NJTSSWG =     20 
   NJTSSWGD =     20 
   VTSS =     10 V
   VTSD =     10 V
   VTSSWS =     10 V
   VTSSWD =     10 V
   VTSSWGS =     10 V
   VTSSWGD =     10 V
   LINTIGEN =      0 m
   NTGEN =      1 
   AIGEN =      0 m^-3V^-1
   BIGEN =      0 m^-3V^-3
   XRCRG1 =     12 
   XRCRG2 =      1 
   NSEG = 5 
   EF =      1 
   EM = 4.1e+07 V/m
   NOIA = 6.25e+39 eV^-1s^1-EFm^-3
   NOIB = 3.125e+24 eV^-1s^1-EFm^-1
   NOIC = 8.75e+07 eV^-1s^1-EFm
   NTNOI =      1 
   TNOM =  300.1 K
   TBGASUB = 0.000702 eV/K
   TBGBSUB =   1108 K
   KT1 =      0 V
   KT1L =      0 Vm
   IIT =   -0.5 
   TII =      0 
   TGIDL = -0.0003 K^-1
   IGT =    2.5 
   TCJ =      0 K^-1
   TCJSW =      0 K^-1
   TCJSWG =      0 K^-1
   TPB =      0 K^-1
   TPBSW =      0 K^-1
   TPBSWG =      0 K^-1
   XTIS =      3 
   XTID =      3 
   XTSS =   0.02 
   XTSD =   0.02 
   XTSSWS =   0.02 
   XTSSWD =   0.02 
   XTSSWGS =   0.02 
   XTSSWGD =   0.02 
   TNJTS =      0 
   TNJTSD =      0 
   TNJTSSW =      0 
   TNJTSSWD =      0 
   TNJTSSWG =      0 
   TNJTSSWGD =      0 
   RTH0 =   0.01 ohm
   CTH0 =  1e-05 F
   WTH0 =      0 m
   LNBODY =      0 
   NNBODY =      0 
   PNBODY =      0 
   LPHIG =      0 
   NPHIG =      0 
   PPHIG =      0 
   LNGATE =      0 
   NNGATE =      0 
   PNGATE =      0 
   LCIT =      0 
   NCIT =      0 
   PCIT =      0 
   LCDSC =      0 
   NCDSC =      0 
   PCDSC =      0 
   LCDSCD =      0 
   NCDSCD =      0 
   PCDSCD =      0 
   LCDSCDR =      0 
   NCDSCDR =      0 
   PCDSCDR =      0 
   LDVT0 =      0 
   NDVT0 =      0 
   PDVT0 =      0 
   LDVT1 =      0 
   NDVT1 =      0 
   PDVT1 =      0 
   LPHIN =      0 
   NPHIN =      0 
   PPHIN =      0 
   LETA0 =      0 
   NETA0 =      0 
   PETA0 =      0 
   LETA0R =      0 
   NETA0R =      0 
   PETA0R =      0 
   LDSUB =      0 
   NDSUB =      0 
   PDSUB =      0 
   LK1RSCE =      0 
   NK1RSCE =      0 
   PK1RSCE =      0 
   LLPE0 =      0 
   NLPE0 =      0 
   PLPE0 =      0 
   LQMFACTOR =      0 
   NQMFACTOR =      0 
   PQMFACTOR =      0 
   LQMTCENIV =      0 
   NQMTCENIV =      0 
   PQMTCENIV =      0 
   LQMTCENCV =      0 
   NQMTCENCV =      0 
   PQMTCENCV =      0 
   LVSAT =      0 
   NVSAT =      0 
   PVSAT =      0 
   LKSATIV =      0 
   NKSATIV =      0 
   PKSATIV =      0 
   LMEXP =      0 
   NMEXP =      0 
   PMEXP =      0 
   LPTWG =      0 
   NPTWG =      0 
   PPTWG =      0 
   LTHETASAT =      0 
   NTHETASAT =      0 
   PTHETASAT =      0 
   LU0 =      0 
   NU0 =      0 
   PU0 =      0 
   LUP =      0 
   NUP =      0 
   PUP =      0 
   LUA =      0 
   NUA =      0 
   PUA =      0 
   LEU =      0 
   NEU =      0 
   PEU =      0 
   LUD =      0 
   NUD =      0 
   PUD =      0 
   LUCS =      0 
   NUCS =      0 
   PUCS =      0 
   LPCLM =      0 
   NPCLM =      0 
   PPCLM =      0 
   LPCLMCV =      0 
   NPCLMCV =      0 
   PPCLMCV =      0 
   LRDSW =      0 
   NRDSW =      0 
   PRDSW =      0 
   LRSW =      0 
   NRSW =      0 
   PRSW =      0 
   LRDW =      0 
   NRDW =      0 
   PRDW =      0 
   LPRWG =      0 
   NPRWG =      0 
   PPRWG =      0 
   LWR =      0 
   NWR =      0 
   PWR =      0 
   LPDIBL1 =      0 
   NPDIBL1 =      0 
   PPDIBL1 =      0 
   LPDIBL2 =      0 
   NPDIBL2 =      0 
   PPDIBL2 =      0 
   LDROUT =      0 
   NDROUT =      0 
   PDROUT =      0 
   LPVAG =      0 
   NPVAG =      0 
   PPVAG =      0 
   LAIGBINV =      0 
   NAIGBINV =      0 
   PAIGBINV =      0 
   LBIGBINV =      0 
   NBIGBINV =      0 
   PBIGBINV =      0 
   LCIGBINV =      0 
   NCIGBINV =      0 
   PCIGBINV =      0 
   LEIGBINV =      0 
   NEIGBINV =      0 
   PEIGBINV =      0 
   LNIGBINV =      0 
   NNIGBINV =      0 
   PNIGBINV =      0 
   LAIGC =      0 
   NAIGC =      0 
   PAIGC =      0 
   LBIGC =      0 
   NBIGC =      0 
   PBIGC =      0 
   LCIGC =      0 
   NCIGC =      0 
   PCIGC =      0 
   LNIGC =      0 
   NNIGC =      0 
   PNIGC =      0 
   LAIGS =      0 
   NAIGS =      0 
   PAIGS =      0 
   LBIGS =      0 
   NBIGS =      0 
   PBIGS =      0 
   LCIGS =      0 
   NCIGS =      0 
   PCIGS =      0 
   LAIGD =      0 
   NAIGD =      0 
   PAIGD =      0 
   LBIGD =      0 
   NBIGD =      0 
   PBIGD =      0 
   LCIGD =      0 
   NCIGD =      0 
   PCIGD =      0 
   LPOXEDGE =      0 
   NPOXEDGE =      0 
   PPOXEDGE =      0 
   LAGIDL =      0 
   NAGIDL =      0 
   PAGIDL =      0 
   LBGIDL =      0 
   NBGIDL =      0 
   PBGIDL =      0 
   LEGIDL =      0 
   NEGIDL =      0 
   PEGIDL =      0 
   LAGISL =      0 
   NAGISL =      0 
   PAGISL =      0 
   LBGISL =      0 
   NBGISL =      0 
   PBGISL =      0 
   LEGISL =      0 
   NEGISL =      0 
   PEGISL =      0 
   LALPHA0 =      0 
   NALPHA0 =      0 
   PALPHA0 =      0 
   LALPHA1 =      0 
   NALPHA1 =      0 
   PALPHA1 =      0 
   LBETA0 =      0 
   NBETA0 =      0 
   PBETA0 =      0 
   LALPHAII =      0 
   NALPHAII =      0 
   PALPHAII =      0 
   LBETAII0 =      0 
   NBETAII0 =      0 
   PBETAII0 =      0 
   LBETAII1 =      0 
   NBETAII1 =      0 
   PBETAII1 =      0 
   LBETAII2 =      0 
   NBETAII2 =      0 
   PBETAII2 =      0 
   LESATII =      0 
   NESATII =      0 
   PESATII =      0 
   LLII =      0 
   NLII =      0 
   PLII =      0 
   LSII0 =      0 
   NSII0 =      0 
   PSII0 =      0 
   LSII1 =      0 
   NSII1 =      0 
   PSII1 =      0 
   LSII2 =      0 
   NSII2 =      0 
   PSII2 =      0 
   LSIID =      0 
   NSIID =      0 
   PSIID =      0 
   LCFS =      0 
   NCFS =      0 
   PCFS =      0 
   LCFD =      0 
   NCFD =      0 
   PCFD =      0 
   LCOVS =      0 
   NCOVS =      0 
   PCOVS =      0 
   LCOVD =      0 
   NCOVD =      0 
   PCOVD =      0 
   LCGSL =      0 
   NCGSL =      0 
   PCGSL =      0 
   LCGDL =      0 
   NCGDL =      0 
   PCGDL =      0 
   LCKAPPAS =      0 
   NCKAPPAS =      0 
   PCKAPPAS =      0 
   LCKAPPAD =      0 
   NCKAPPAD =      0 
   PCKAPPAD =      0 
   LCGBL =      0 
   NCGBL =      0 
   PCGBL =      0 
   LCKAPPAB =      0 
   NCKAPPAB =      0 
   PCKAPPAB =      0 
   LNTGEN =      0 
   NNTGEN =      0 
   PNTGEN =      0 
   LAIGEN =      0 
   NAIGEN =      0 
   PAIGEN =      0 
   LBIGEN =      0 
   NBIGEN =      0 
   PBIGEN =      0 
   LXRCRG1 =      0 
   NXRCRG1 =      0 
   PXRCRG1 =      0 
   LXRCRG2 =      0 
   NXRCRG2 =      0 
   PXRCRG2 =      0 
   LINTNOI =      0 
   NINTNOI =      0 
   PINTNOI =      0 
   LUTE =      0 
   NUTE =      0 
   PUTE =      0 
   LUTL =      0 
   NUTL =      0 
   PUTL =      0 
   LUA1 =      0 
   NUA1 =      0 
   PUA1 =      0 
   LUD1 =      0 
   NUD1 =      0 
   PUD1 =      0 
   LUCSTE =      0 
   NUCSTE =      0 
   PUCSTE =      0 
   LPTWGT =      0 
   NPTWGT =      0 
   PPTWGT =      0 
   LAT =      0 
   NAT =      0 
   PAT =      0 
   LSTTHETASAT =      0 
   NSTTHETASAT =      0 
   PSTTHETASAT =      0 
   LPRT =      0 
   NPRT =      0 
   PPRT =      0 
   LIIT =      0 
   NIIT =      0 
   PIIT =      0 
   LTII =      0 
   NTII =      0 
   PTII =      0 
   LTGIDL =      0 
   NTGIDL =      0 
   PTGIDL =      0 
   LIGT =      0 
   NIGT =      0 
   PIGT =      0 
   L = 1.1e-08 m
   D =  4e-08 m
   TFIN = 6.5e-09 m
   FPITCH = 2.2e-08 m
   NF = 1 
   NFIN = 1 
   NGCON = 1 
   ASEO =      0 m^2
   ADEO =      0 m^2
   PSEO =      0 m
   PDEO =      0 m
   ASEJ =      0 m^2
   ADEJ =      0 m^2
   PSEJ =      0 m
   PDEJ =      0 m
   CGSP =      0 F
   CGDP =      0 F
   CDSP =      0 F
   NRS =      0 
   NRD =      0 
   LRSD = 1.1e-08 m
   XL =      0 m
   DELVTRAND =      0 
   U0MULT =      1 
   IDS0MULT =      1 
   Lmin =  1e-08 m
   Lmax =  3e-08 m
   NFINmin = 0 
   NFINmax = 1 
   LVSAT1 =      0 
   NVSAT1 =      0 
   PVSAT1 =      0 
   LETAMOB =      0 
   NETAMOB =      0 
   PETAMOB =      0 
   LPCLMG =      0 
   NPCLMG =      0 
   PPCLMG =      0 
   LVASAT =      0 
   NVASAT =      0 
   PVASAT =      0 
   LAIGBACC =      0 
   NAIGBACC =      0 
   PAIGBACC =      0 
   LBIGBACC =      0 
   NBIGBACC =      0 
   PBIGBACC =      0 
   LCIGBACC =      0 
   NCIGBACC =      0 
   PCIGBACC =      0 
   LNIGBACC =      0 
   NNIGBACC =      0 
   PNIGBACC =      0 
  **info** (ptm7hp.sp:15) DC voltage reset to initial transient source value              in source        0:vin_0               new dc=  0.7000D+00
  
 **warning**  No DC path to ground from node        0:outin_40         defined in subckt 0               ; Connected by HSPICE with gdcpath


      
 **info** set option symb=1 internally to help for convergence.
 *****************************************************************
 ******  option summary
 ******
 runlvl  = 3         bypass  = 2         
  Opening plot unit= 15
 file=ptm7hp.pa0                                                               

1****** HSPICE -- F-2011.09-SP2 64-BIT (Feb 27 2012) linux ******               
 ******  
 $this uut was automatically generated by:

  ******  operating point information tnom=  25.000 temp=  25.000 *****
 ***** operating point status is voltage   simulation time is     0.     
     node    =voltage       node    =voltage       node    =voltage

 + 0:inb_0   = 700.0000m  0:inb_1   = 700.0000m  0:inb_2   = 700.0000m
 + 0:outb_00 = 689.3814m  0:outb_10 = 689.3814m  0:outb_20 = 689.3814m
 + 0:outin_00=   9.3910m  0:outin_01=   9.3910m  0:outin_02=   9.3910m
 + 0:outin_10= 691.2671m  0:outin_11= 691.2671m  0:outin_12= 691.2671m
 + 0:outin_20=  10.6657m  0:outin_21=  10.6657m  0:outin_22=  10.6657m
 + 0:outin_30= 691.0843m  0:outin_31= 691.0843m  0:outin_32= 691.0843m
 + 0:outin_40=  21.6379m  0:outin_41=  21.6379m  0:outin_42=  21.6379m
 + 0:vdd     = 700.0000m

 ******  
 $this uut was automatically generated by:

  ******  transient analysis tnom=  25.000 temp=  25.000 *****
 trf_delay_001=   1.8587p  targ=  30.0891p   trig=  28.2304p
 tfr_delay_001=   2.0563p  targ=   1.0795n   trig=   1.0774n
 trf_delay_002=   1.5768p  targ=   2.0299n   trig=   2.0284n
 tfr_delay_002=   1.9908p  targ=   3.0792n   trig=   3.0772n
 trf_delay_003=   1.3564p  targ=   4.0301n   trig=   4.0288n
 tfr_delay_003=   2.0768p  targ=   5.0792n   trig=   5.0771n
 trf_delay_004=   1.7913p  targ=   6.0300n   trig=   6.0282n
 tfr_delay_004=   2.2110p  targ=   7.0793n   trig=   7.0771n
 trf_delay_101=   1.5746p  targ=   1.0810n   trig=   1.0795n
 tfr_delay_101=   1.6147p  targ=  31.7037p   trig=  30.0891p
 trf_delay_102=   1.6490p  targ=   3.0808n   trig=   3.0792n
 tfr_delay_102=   1.9055p  targ=   2.0318n   trig=   2.0299n
 trf_delay_103=   1.4925p  targ=   5.0807n   trig=   5.0792n
 tfr_delay_103=   2.2251p  targ=   4.0324n   trig=   4.0301n
 trf_delay_104=   1.3837p  targ=   7.0807n   trig=   7.0793n
 tfr_delay_104=   1.8472p  targ=   6.0319n   trig=   6.0300n
 trf_delay_201=   1.0121p  targ=  32.7158p   trig=  31.7037p
 tfr_delay_201=  26.7740f  targ=   1.0811n   trig=   1.0810n
 trf_delay_202= 583.0895f  targ=   2.0324n   trig=   2.0318n
 tfr_delay_202= 369.3201f  targ=   3.0812n   trig=   3.0808n
 trf_delay_203= 295.5464f  targ=   4.0326n   trig=   4.0324n
 tfr_delay_203= 899.5027f  targ=   5.0816n   trig=   5.0807n
 trf_delay_204= 713.6005f  targ=   6.0326n   trig=   6.0319n
 tfr_delay_204=   1.1288p  targ=   7.0818n   trig=   7.0807n
 trf_delay_011=   1.8587p  targ=  30.0891p   trig=  28.2304p
 tfr_delay_011=   1.5539p  targ=   2.0789n   trig=   2.0774n
 trf_delay_012=   1.3564p  targ=   4.0301n   trig=   4.0288n
 tfr_delay_012=   2.3686p  targ=   6.0793n   trig=   6.0769n
 trf_delay_111=   1.6364p  targ=   2.0806n   trig=   2.0789n
 tfr_delay_111=   1.6147p  targ=  31.7037p   trig=  30.0891p
 trf_delay_112=   1.6144p  targ=   6.0809n   trig=   6.0793n
 tfr_delay_112=   2.2251p  targ=   4.0324n   trig=   4.0301n
 trf_delay_211=   1.0121p  targ=  32.7158p   trig=  31.7037p
 tfr_delay_211=   1.7699p  targ=   2.0824n   trig=   2.0806n
 trf_delay_212= 295.5481f  targ=   4.0326n   trig=   4.0324n
 tfr_delay_212= 566.8744f  targ=   6.0814n   trig=   6.0809n
 trf_delay_021=   1.8587p  targ=  30.0891p   trig=  28.2304p
 tfr_delay_021=   2.4908p  targ=   4.0795n   trig=   4.0770n
 trf_delay_121=   1.3596p  targ=   4.0809n   trig=   4.0795n
 tfr_delay_121=   1.6147p  targ=  31.7037p   trig=  30.0891p
 trf_delay_221=   1.0121p  targ=  32.7158p   trig=  31.7037p
 tfr_delay_221=   1.2652p  targ=   4.0822n   trig=   4.0809n
x

        time    voltage      voltage    
                 outin_00     outin_10  
    0.            9.3910m    691.2671m  
   10.00000p     38.3890m    687.4528m  
   20.00000p    104.7311m    672.0368m  
   30.00000p    416.6306m    358.0963m  
   40.00000p    649.9106m     20.7588m  
   50.00000p    688.3038m     11.9740m  
   60.00000p    692.5080m     10.4910m  
   70.00000p    692.5410m     10.4549m  
   80.00000p    692.5216m     10.4766m  
   90.00000p    692.5057m     10.4943m  
  100.00000p    692.5126m     10.4866m  
  110.00000p    692.5194m     10.4788m  
  120.00000p    692.5262m     10.4711m  
  130.00000p    692.5331m     10.4634m  
  140.00000p    692.5390m     10.4567m  
  150.00000p    692.5359m     10.4602m  
  160.00000p    692.5328m     10.4638m  
  170.00000p    692.5297m     10.4673m  
  180.00000p    692.5266m     10.4708m  
  190.00000p    692.5235m     10.4743m  
  200.00000p    692.5204m     10.4779m  
  210.00000p    692.5173m     10.4814m  
  220.00000p    692.5142m     10.4849m  
  230.00000p    692.5111m     10.4884m  
  240.00000p    692.5080m     10.4920m  
  250.00000p    692.5073m     10.4928m  
  260.00000p    692.5087m     10.4911m  
  270.00000p    692.5102m     10.4894m  
  280.00000p    692.5116m     10.4878m  
  290.00000p    692.5131m     10.4861m  
  300.00000p    692.5146m     10.4844m  
  310.00000p    692.5160m     10.4828m  
  320.00000p    692.5175m     10.4811m  
  330.00000p    692.5189m     10.4795m  
  340.00000p    692.5204m     10.4778m  
  350.00000p    692.5219m     10.4761m  
  360.00000p    692.5233m     10.4745m  
  370.00000p    692.5248m     10.4728m  
  380.00000p    692.5262m     10.4711m  
  390.00000p    692.5277m     10.4695m  
  400.00000p    692.5292m     10.4678m  
  410.00000p    692.5306m     10.4661m  
  420.00000p    692.5321m     10.4645m  
  430.00000p    692.5335m     10.4628m  
  440.00000p    692.5350m     10.4612m  
  450.00000p    692.5364m     10.4595m  
  460.00000p    692.5379m     10.4578m  
  470.00000p    692.5380m     10.4577m  
  480.00000p    692.5372m     10.4586m  
  490.00000p    692.5364m     10.4595m  
  500.00000p    692.5356m     10.4604m  
  510.00000p    692.5348m     10.4614m  
  520.00000p    692.5340m     10.4623m  
  530.00000p    692.5332m     10.4632m  
  540.00000p    692.5324m     10.4641m  
  550.00000p    692.5316m     10.4650m  
  560.00000p    692.5308m     10.4659m  
  570.00000p    692.5300m     10.4668m  
  580.00000p    692.5292m     10.4677m  
  590.00000p    692.5284m     10.4686m  
  600.00000p    692.5276m     10.4695m  
  610.00000p    692.5268m     10.4705m  
  620.00000p    692.5261m     10.4714m  
  630.00000p    692.5253m     10.4723m  
  640.00000p    692.5245m     10.4732m  
  650.00000p    692.5237m     10.4741m  
  660.00000p    692.5229m     10.4750m  
  670.00000p    692.5221m     10.4759m  
  680.00000p    692.5213m     10.4768m  
  690.00000p    692.5205m     10.4777m  
  700.00000p    692.5197m     10.4786m  
  710.00000p    692.5189m     10.4796m  
  720.00000p    692.5181m     10.4805m  
  730.00000p    692.5173m     10.4814m  
  740.00000p    692.5165m     10.4823m  
  750.00000p    692.5157m     10.4832m  
  760.00000p    692.5149m     10.4841m  
  770.00000p    692.5141m     10.4850m  
  780.00000p    692.5133m     10.4859m  
  790.00000p    692.5125m     10.4868m  
  800.00000p    692.5117m     10.4877m  
  810.00000p    692.5109m     10.4887m  
  820.00000p    692.5101m     10.4896m  
  830.00000p    692.5093m     10.4905m  
  840.00000p    692.5085m     10.4914m  
  850.00000p    692.5077m     10.4923m  
  860.00000p    692.5069m     10.4932m  
  870.00000p    692.5085m     10.4915m  
  880.00000p    692.5101m     10.4896m  
  890.00000p    692.5117m     10.4877m  
  900.00000p    692.5134m     10.4858m  
  910.00000p    692.5150m     10.4839m  
  920.00000p    692.5167m     10.4820m  
  930.00000p    692.5183m     10.4802m  
  940.00000p    692.5200m     10.4783m  
  950.00000p    692.5216m     10.4764m  
  960.00000p    692.5233m     10.4745m  
  970.00000p    692.5249m     10.4726m  
  980.00000p    692.5266m     10.4708m  
  990.00000p    692.5282m     10.4689m  
    1.00000n    692.5298m     10.4670m  
    1.01000n    692.5315m     10.4651m  
    1.02000n    692.5331m     10.4632m  
    1.03000n    692.5348m     10.4614m  
    1.04000n    692.5364m     10.4595m  
    1.05000n    692.5381m     10.4576m  
    1.06000n    661.1694m     14.7209m  
    1.07000n    584.1225m     34.0598m  
    1.08000n    242.0459m    383.8023m  
    1.09000n     46.4620m    681.3045m  
    1.10000n     12.9604m    689.9819m  
    1.11000n      9.3966m    691.2563m  
    1.12000n      9.3826m    691.2842m  
    1.13000n      9.3912m    691.2665m  
    1.14000n      9.3986m    691.2512m  
    1.15000n      9.3960m    691.2567m  
    1.16000n      9.3934m    691.2622m  
    1.17000n      9.3908m    691.2677m  
    1.18000n      9.3882m    691.2733m  
    1.19000n      9.3857m    691.2788m  
    1.20000n      9.3841m    691.2822m  
    1.21000n      9.3853m    691.2796m  
    1.22000n      9.3865m    691.2769m  
    1.23000n      9.3877m    691.2743m  
    1.24000n      9.3889m    691.2717m  
    1.25000n      9.3901m    691.2691m  
    1.26000n      9.3913m    691.2665m  
    1.27000n      9.3925m    691.2638m  
    1.28000n      9.3937m    691.2612m  
    1.29000n      9.3949m    691.2586m  
    1.30000n      9.3961m    691.2560m  
    1.31000n      9.3974m    691.2534m  
    1.32000n      9.3980m    691.2520m  
    1.33000n      9.3974m    691.2532m  
    1.34000n      9.3969m    691.2544m  
    1.35000n      9.3964m    691.2556m  
    1.36000n      9.3958m    691.2567m  
    1.37000n      9.3953m    691.2579m  
    1.38000n      9.3947m    691.2591m  
    1.39000n      9.3942m    691.2603m  
    1.40000n      9.3937m    691.2614m  
    1.41000n      9.3931m    691.2626m  
    1.42000n      9.3926m    691.2638m  
    1.43000n      9.3921m    691.2650m  
    1.44000n      9.3915m    691.2661m  
    1.45000n      9.3910m    691.2673m  
    1.46000n      9.3904m    691.2685m  
    1.47000n      9.3899m    691.2696m  
    1.48000n      9.3894m    691.2708m  
    1.49000n      9.3888m    691.2720m  
    1.50000n      9.3883m    691.2732m  
    1.51000n      9.3877m    691.2743m  
    1.52000n      9.3872m    691.2755m  
    1.53000n      9.3867m    691.2767m  
    1.54000n      9.3861m    691.2779m  
    1.55000n      9.3856m    691.2790m  
    1.56000n      9.3851m    691.2802m  
    1.57000n      9.3845m    691.2814m  
    1.58000n      9.3841m    691.2823m  
    1.59000n      9.3844m    691.2816m  
    1.60000n      9.3848m    691.2808m  
    1.61000n      9.3851m    691.2801m  
    1.62000n      9.3854m    691.2794m  
    1.63000n      9.3858m    691.2787m  
    1.64000n      9.3861m    691.2779m  
    1.65000n      9.3864m    691.2772m  
    1.66000n      9.3868m    691.2765m  
    1.67000n      9.3871m    691.2758m  
    1.68000n      9.3874m    691.2750m  
    1.69000n      9.3877m    691.2743m  
    1.70000n      9.3881m    691.2736m  
    1.71000n      9.3884m    691.2729m  
    1.72000n      9.3887m    691.2721m  
    1.73000n      9.3891m    691.2714m  
    1.74000n      9.3894m    691.2707m  
    1.75000n      9.3897m    691.2700m  
    1.76000n      9.3901m    691.2693m  
    1.77000n      9.3904m    691.2685m  
    1.78000n      9.3907m    691.2678m  
    1.79000n      9.3911m    691.2671m  
    1.80000n      9.3914m    691.2664m  
    1.81000n      9.3917m    691.2656m  
    1.82000n      9.3920m    691.2649m  
    1.83000n      9.3924m    691.2642m  
    1.84000n      9.3927m    691.2635m  
    1.85000n      9.3930m    691.2627m  
    1.86000n      9.3934m    691.2620m  
    1.87000n      9.3937m    691.2613m  
    1.88000n      9.3940m    691.2606m  
    1.89000n      9.3944m    691.2598m  
    1.90000n      9.3947m    691.2591m  
    1.91000n      9.3950m    691.2584m  
    1.92000n      9.3954m    691.2577m  
    1.93000n      9.3957m    691.2569m  
    1.94000n      9.3960m    691.2562m  
    1.95000n      9.3963m    691.2555m  
    1.96000n      9.3967m    691.2548m  
    1.97000n      9.3970m    691.2540m  
    1.98000n      9.3973m    691.2533m  
    1.99000n      9.3977m    691.2526m  
    2.00000n      9.3980m    691.2519m  
    2.01000n     38.9138m    687.1521m  
    2.02000n    112.1295m    668.9550m  
    2.03000n    415.6202m    344.5403m  
    2.04000n    649.7827m     20.5002m  
    2.05000n    688.1865m     11.5868m  
    2.06000n    692.5294m     10.4690m  
    2.07000n    692.5332m     10.4539m  
    2.08000n    692.5137m     10.4966m  
    2.09000n    692.5214m     10.4737m  
    2.10000n    692.5218m     10.4730m  
    2.11000n    692.5226m     10.4753m  
    2.12000n    692.5226m     10.4753m  
    2.13000n    692.5226m     10.4753m  
    2.14000n    692.5226m     10.4753m  
    2.15000n    692.5226m     10.4753m  
    2.16000n    692.5226m     10.4752m  
    2.17000n    692.5226m     10.4752m  
    2.18000n    692.5226m     10.4752m  
    2.19000n    692.5226m     10.4753m  
    2.20000n    692.5226m     10.4753m  
    2.21000n    692.5226m     10.4753m  
    2.22000n    692.5226m     10.4753m  
    2.23000n    692.5226m     10.4753m  
    2.24000n    692.5226m     10.4753m  
    2.25000n    692.5226m     10.4753m  
    2.26000n    692.5226m     10.4753m  
    2.27000n    692.5226m     10.4753m  
    2.28000n    692.5226m     10.4753m  
    2.29000n    692.5226m     10.4753m  
    2.30000n    692.5226m     10.4753m  
    2.31000n    692.5226m     10.4753m  
    2.32000n    692.5226m     10.4753m  
    2.33000n    692.5226m     10.4753m  
    2.34000n    692.5226m     10.4753m  
    2.35000n    692.5226m     10.4752m  
    2.36000n    692.5226m     10.4752m  
    2.37000n    692.5226m     10.4752m  
    2.38000n    692.5226m     10.4752m  
    2.39000n    692.5226m     10.4752m  
    2.40000n    692.5226m     10.4752m  
    2.41000n    692.5226m     10.4752m  
    2.42000n    692.5226m     10.4752m  
    2.43000n    692.5226m     10.4752m  
    2.44000n    692.5226m     10.4752m  
    2.45000n    692.5226m     10.4752m  
    2.46000n    692.5226m     10.4753m  
    2.47000n    692.5226m     10.4753m  
    2.48000n    692.5226m     10.4753m  
    2.49000n    692.5226m     10.4753m  
    2.50000n    692.5226m     10.4753m  
    2.51000n    692.5226m     10.4753m  
    2.52000n    692.5226m     10.4753m  
    2.53000n    692.5226m     10.4753m  
    2.54000n    692.5226m     10.4753m  
    2.55000n    692.5226m     10.4753m  
    2.56000n    692.5226m     10.4753m  
    2.57000n    692.5226m     10.4753m  
    2.58000n    692.5226m     10.4753m  
    2.59000n    692.5226m     10.4753m  
    2.60000n    692.5226m     10.4753m  
    2.61000n    692.5226m     10.4753m  
    2.62000n    692.5226m     10.4753m  
    2.63000n    692.5226m     10.4753m  
    2.64000n    692.5226m     10.4753m  
    2.65000n    692.5226m     10.4753m  
    2.66000n    692.5226m     10.4753m  
    2.67000n    692.5226m     10.4753m  
    2.68000n    692.5226m     10.4753m  
    2.69000n    692.5226m     10.4753m  
    2.70000n    692.5226m     10.4753m  
    2.71000n    692.5226m     10.4753m  
    2.72000n    692.5226m     10.4753m  
    2.73000n    692.5226m     10.4753m  
    2.74000n    692.5226m     10.4753m  
    2.75000n    692.5226m     10.4753m  
    2.76000n    692.5226m     10.4753m  
    2.77000n    692.5226m     10.4753m  
    2.78000n    692.5226m     10.4753m  
    2.79000n    692.5226m     10.4753m  
    2.80000n    692.5226m     10.4753m  
    2.81000n    692.5226m     10.4753m  
    2.82000n    692.5226m     10.4753m  
    2.83000n    692.5226m     10.4753m  
    2.84000n    692.5226m     10.4753m  
    2.85000n    692.5226m     10.4753m  
    2.86000n    692.5226m     10.4753m  
    2.87000n    692.5226m     10.4753m  
    2.88000n    692.5226m     10.4753m  
    2.89000n    692.5226m     10.4753m  
    2.90000n    692.5226m     10.4753m  
    2.91000n    692.5226m     10.4753m  
    2.92000n    692.5226m     10.4753m  
    2.93000n    692.5226m     10.4753m  
    2.94000n    692.5226m     10.4753m  
    2.95000n    692.5226m     10.4753m  
    2.96000n    692.5226m     10.4752m  
    2.97000n    692.5226m     10.4752m  
    2.98000n    692.5226m     10.4752m  
    2.99000n    692.5226m     10.4752m  
    3.00000n    692.5226m     10.4752m  
    3.01000n    692.5226m     10.4752m  
    3.02000n    692.5226m     10.4752m  
    3.03000n    692.5226m     10.4752m  
    3.04000n    692.5226m     10.4752m  
    3.05000n    692.5226m     10.4752m  
    3.06000n    659.7466m     15.2824m  
    3.07000n    566.7160m     36.7736m  
    3.08000n    234.9071m    409.5690m  
    3.09000n     46.9205m    683.0731m  
    3.10000n     12.8459m    689.8875m  
    3.11000n      9.3956m    691.3091m  
    3.12000n      9.3826m    691.2230m  
    3.13000n      9.3967m    691.2863m  
    3.14000n      9.3971m    691.2906m  
    3.15000n      9.3924m    691.2729m  
    3.16000n      9.3877m    691.2553m  
    3.17000n      9.3829m    691.2377m  
    3.18000n      9.3831m    691.2379m  
    3.19000n      9.3851m    691.2449m  
    3.20000n      9.3870m    691.2519m  
    3.21000n      9.3890m    691.2589m  
    3.22000n      9.3910m    691.2659m  
    3.23000n      9.3929m    691.2729m  
    3.24000n      9.3949m    691.2799m  
    3.25000n      9.3969m    691.2869m  
    3.26000n      9.3989m    691.2939m  
    3.27000n      9.4006m    691.3002m  
    3.28000n      9.3995m    691.2965m  
    3.29000n      9.3985m    691.2928m  
    3.30000n      9.3974m    691.2891m  
    3.31000n      9.3964m    691.2854m  
    3.32000n      9.3953m    691.2817m  
    3.33000n      9.3942m    691.2780m  
    3.34000n      9.3932m    691.2743m  
    3.35000n      9.3921m    691.2706m  
    3.36000n      9.3910m    691.2669m  
    3.37000n      9.3900m    691.2633m  
    3.38000n      9.3889m    691.2596m  
    3.39000n      9.3878m    691.2559m  
    3.40000n      9.3868m    691.2522m  
    3.41000n      9.3857m    691.2485m  
    3.42000n      9.3847m    691.2448m  
    3.43000n      9.3836m    691.2411m  
    3.44000n      9.3825m    691.2374m  
    3.45000n      9.3817m    691.2344m  
    3.46000n      9.3822m    691.2361m  
    3.47000n      9.3826m    691.2378m  
    3.48000n      9.3831m    691.2395m  
    3.49000n      9.3836m    691.2412m  
    3.50000n      9.3841m    691.2429m  
    3.51000n      9.3846m    691.2446m  
    3.52000n      9.3851m    691.2463m  
    3.53000n      9.3856m    691.2480m  
    3.54000n      9.3861m    691.2497m  
    3.55000n      9.3866m    691.2514m  
    3.56000n      9.3871m    691.2531m  
    3.57000n      9.3876m    691.2548m  
    3.58000n      9.3881m    691.2565m  
    3.59000n      9.3886m    691.2583m  
    3.60000n      9.3891m    691.2600m  
    3.61000n      9.3896m    691.2617m  
    3.62000n      9.3901m    691.2634m  
    3.63000n      9.3906m    691.2651m  
    3.64000n      9.3911m    691.2668m  
    3.65000n      9.3916m    691.2685m  
    3.66000n      9.3921m    691.2702m  
    3.67000n      9.3926m    691.2719m  
    3.68000n      9.3931m    691.2736m  
    3.69000n      9.3936m    691.2753m  
    3.70000n      9.3941m    691.2770m  
    3.71000n      9.3946m    691.2787m  
    3.72000n      9.3951m    691.2804m  
    3.73000n      9.3956m    691.2821m  
    3.74000n      9.3961m    691.2838m  
    3.75000n      9.3966m    691.2856m  
    3.76000n      9.3971m    691.2873m  
    3.77000n      9.3976m    691.2890m  
    3.78000n      9.3981m    691.2907m  
    3.79000n      9.3986m    691.2924m  
    3.80000n      9.3991m    691.2941m  
    3.81000n      9.3995m    691.2958m  
    3.82000n      9.4000m    691.2975m  
    3.83000n      9.4005m    691.2992m  
    3.84000n      9.3999m    691.2972m  
    3.85000n      9.3988m    691.2933m  
    3.86000n      9.3977m    691.2894m  
    3.87000n      9.3965m    691.2855m  
    3.88000n      9.3954m    691.2816m  
    3.89000n      9.3942m    691.2777m  
    3.90000n      9.3931m    691.2738m  
    3.91000n      9.3919m    691.2699m  
    3.92000n      9.3908m    691.2660m  
    3.93000n      9.3896m    691.2621m  
    3.94000n      9.3885m    691.2582m  
    3.95000n      9.3873m    691.2543m  
    3.96000n      9.3862m    691.2504m  
    3.97000n      9.3850m    691.2465m  
    3.98000n      9.3839m    691.2426m  
    3.99000n      9.3827m    691.2387m  
    4.00000n      9.3816m    691.2348m  
    4.01000n     37.9253m    687.6934m  
    4.02000n     94.7931m    674.9575m  
    4.03000n    398.3376m    357.3315m  
    4.04000n    649.6720m     16.1721m  
    4.05000n    688.1769m     11.5243m  
    4.06000n    692.5120m     10.4834m  
    4.07000n    692.5226m     10.4754m  
    4.08000n    692.5226m     10.4754m  
    4.09000n    692.5226m     10.4753m  
    4.10000n    692.5226m     10.4753m  
    4.11000n    692.5226m     10.4753m  
    4.12000n    692.5226m     10.4753m  
    4.13000n    692.5226m     10.4753m  
    4.14000n    692.5226m     10.4753m  
    4.15000n    692.5226m     10.4753m  
    4.16000n    692.5226m     10.4753m  
    4.17000n    692.5226m     10.4753m  
    4.18000n    692.5226m     10.4753m  
    4.19000n    692.5226m     10.4753m  
    4.20000n    692.5226m     10.4753m  
    4.21000n    692.5226m     10.4753m  
    4.22000n    692.5226m     10.4753m  
    4.23000n    692.5226m     10.4753m  
    4.24000n    692.5226m     10.4753m  
    4.25000n    692.5226m     10.4753m  
    4.26000n    692.5226m     10.4753m  
    4.27000n    692.5226m     10.4753m  
    4.28000n    692.5226m     10.4753m  
    4.29000n    692.5226m     10.4753m  
    4.30000n    692.5226m     10.4753m  
    4.31000n    692.5226m     10.4753m  
    4.32000n    692.5226m     10.4753m  
    4.33000n    692.5226m     10.4753m  
    4.34000n    692.5226m     10.4753m  
    4.35000n    692.5226m     10.4753m  
    4.36000n    692.5226m     10.4753m  
    4.37000n    692.5226m     10.4753m  
    4.38000n    692.5226m     10.4753m  
    4.39000n    692.5226m     10.4753m  
    4.40000n    692.5226m     10.4753m  
    4.41000n    692.5226m     10.4753m  
    4.42000n    692.5226m     10.4753m  
    4.43000n    692.5226m     10.4753m  
    4.44000n    692.5226m     10.4753m  
    4.45000n    692.5226m     10.4753m  
    4.46000n    692.5226m     10.4753m  
    4.47000n    692.5226m     10.4753m  
    4.48000n    692.5226m     10.4753m  
    4.49000n    692.5226m     10.4753m  
    4.50000n    692.5226m     10.4753m  
    4.51000n    692.5226m     10.4753m  
    4.52000n    692.5226m     10.4753m  
    4.53000n    692.5226m     10.4753m  
    4.54000n    692.5226m     10.4753m  
    4.55000n    692.5226m     10.4753m  
    4.56000n    692.5226m     10.4753m  
    4.57000n    692.5226m     10.4753m  
    4.58000n    692.5226m     10.4753m  
    4.59000n    692.5226m     10.4753m  
    4.60000n    692.5226m     10.4753m  
    4.61000n    692.5226m     10.4753m  
    4.62000n    692.5226m     10.4753m  
    4.63000n    692.5226m     10.4753m  
    4.64000n    692.5226m     10.4753m  
    4.65000n    692.5226m     10.4753m  
    4.66000n    692.5226m     10.4753m  
    4.67000n    692.5226m     10.4753m  
    4.68000n    692.5226m     10.4753m  
    4.69000n    692.5226m     10.4753m  
    4.70000n    692.5226m     10.4753m  
    4.71000n    692.5226m     10.4753m  
    4.72000n    692.5226m     10.4753m  
    4.73000n    692.5226m     10.4753m  
    4.74000n    692.5226m     10.4753m  
    4.75000n    692.5226m     10.4753m  
    4.76000n    692.5226m     10.4753m  
    4.77000n    692.5226m     10.4753m  
    4.78000n    692.5226m     10.4753m  
    4.79000n    692.5226m     10.4753m  
    4.80000n    692.5226m     10.4753m  
    4.81000n    692.5226m     10.4753m  
    4.82000n    692.5226m     10.4753m  
    4.83000n    692.5226m     10.4753m  
    4.84000n    692.5226m     10.4753m  
    4.85000n    692.5226m     10.4753m  
    4.86000n    692.5226m     10.4753m  
    4.87000n    692.5226m     10.4753m  
    4.88000n    692.5226m     10.4753m  
    4.89000n    692.5226m     10.4753m  
    4.90000n    692.5226m     10.4753m  
    4.91000n    692.5226m     10.4753m  
    4.92000n    692.5226m     10.4753m  
    4.93000n    692.5226m     10.4753m  
    4.94000n    692.5226m     10.4753m  
    4.95000n    692.5226m     10.4753m  
    4.96000n    692.5226m     10.4753m  
    4.97000n    692.5226m     10.4753m  
    4.98000n    692.5226m     10.4753m  
    4.99000n    692.5226m     10.4753m  
    5.00000n    692.5226m     10.4753m  
    5.01000n    692.5226m     10.4753m  
    5.02000n    692.5226m     10.4753m  
    5.03000n    692.5226m     10.4753m  
    5.04000n    692.5226m     10.4753m  
    5.05000n    692.5226m     10.4753m  
    5.06000n    659.8671m     15.2343m  
    5.07000n    574.5715m     34.6462m  
    5.08000n    234.6694m    413.9191m  
    5.09000n     46.7478m    682.8032m  
    5.10000n     12.8358m    689.7382m  
    5.11000n      9.4076m    691.2644m  
    5.12000n      9.3825m    691.2678m  
    5.13000n      9.3965m    691.2668m  
    5.14000n      9.4002m    691.2665m  
    5.15000n      9.3959m    691.2668m  
    5.16000n      9.3916m    691.2670m  
    5.17000n      9.3874m    691.2672m  
    5.18000n      9.3831m    691.2674m  
    5.19000n      9.3804m    691.2676m  
    5.20000n      9.3824m    691.2675m  
    5.21000n      9.3843m    691.2674m  
    5.22000n      9.3863m    691.2673m  
    5.23000n      9.3882m    691.2672m  
    5.24000n      9.3902m    691.2672m  
    5.25000n      9.3921m    691.2671m  
    5.26000n      9.3941m    691.2670m  
    5.27000n      9.3960m    691.2669m  
    5.28000n      9.3980m    691.2668m  
    5.29000n      9.4000m    691.2668m  
    5.30000n      9.4019m    691.2667m  
    5.31000n      9.4012m    691.2667m  
    5.32000n      9.4003m    691.2667m  
    5.33000n      9.3994m    691.2668m  
    5.34000n      9.3986m    691.2668m  
    5.35000n      9.3977m    691.2668m  
    5.36000n      9.3969m    691.2669m  
    5.37000n      9.3960m    691.2669m  
    5.38000n      9.3952m    691.2669m  
    5.39000n      9.3943m    691.2670m  
    5.40000n      9.3935m    691.2670m  
    5.41000n      9.3926m    691.2670m  
    5.42000n      9.3918m    691.2670m  
    5.43000n      9.3909m    691.2671m  
    5.44000n      9.3901m    691.2671m  
    5.45000n      9.3892m    691.2671m  
    5.46000n      9.3884m    691.2672m  
    5.47000n      9.3875m    691.2672m  
    5.48000n      9.3866m    691.2672m  
    5.49000n      9.3858m    691.2673m  
    5.50000n      9.3849m    691.2673m  
    5.51000n      9.3841m    691.2673m  
    5.52000n      9.3832m    691.2674m  
    5.53000n      9.3824m    691.2674m  
    5.54000n      9.3815m    691.2674m  
    5.55000n      9.3807m    691.2675m  
    5.56000n      9.3804m    691.2675m  
    5.57000n      9.3810m    691.2674m  
    5.58000n      9.3815m    691.2674m  
    5.59000n      9.3821m    691.2674m  
    5.60000n      9.3826m    691.2674m  
    5.61000n      9.3831m    691.2674m  
    5.62000n      9.3837m    691.2674m  
    5.63000n      9.3842m    691.2673m  
    5.64000n      9.3848m    691.2673m  
    5.65000n      9.3853m    691.2673m  
    5.66000n      9.3858m    691.2673m  
    5.67000n      9.3864m    691.2673m  
    5.68000n      9.3869m    691.2672m  
    5.69000n      9.3875m    691.2672m  
    5.70000n      9.3880m    691.2672m  
    5.71000n      9.3886m    691.2672m  
    5.72000n      9.3891m    691.2672m  
    5.73000n      9.3896m    691.2672m  
    5.74000n      9.3902m    691.2671m  
    5.75000n      9.3907m    691.2671m  
    5.76000n      9.3913m    691.2671m  
    5.77000n      9.3918m    691.2671m  
    5.78000n      9.3923m    691.2671m  
    5.79000n      9.3929m    691.2670m  
    5.80000n      9.3934m    691.2670m  
    5.81000n      9.3940m    691.2670m  
    5.82000n      9.3945m    691.2670m  
    5.83000n      9.3950m    691.2670m  
    5.84000n      9.3956m    691.2669m  
    5.85000n      9.3961m    691.2669m  
    5.86000n      9.3967m    691.2669m  
    5.87000n      9.3972m    691.2669m  
    5.88000n      9.3977m    691.2669m  
    5.89000n      9.3983m    691.2669m  
    5.90000n      9.3988m    691.2668m  
    5.91000n      9.3994m    691.2668m  
    5.92000n      9.3999m    691.2668m  
    5.93000n      9.4005m    691.2668m  
    5.94000n      9.4010m    691.2668m  
    5.95000n      9.4015m    691.2667m  
    5.96000n      9.3997m    691.2668m  
    5.97000n      9.3950m    691.2669m  
    5.98000n      9.3902m    691.2670m  
    5.99000n      9.3855m    691.2671m  
    6.00000n      9.3807m    691.2672m  
    6.01000n     37.9757m    687.6389m  
    6.02000n    111.6430m    669.3732m  
    6.03000n    416.2552m    351.8867m  
    6.04000n    649.2107m     19.5898m  
    6.05000n    688.3590m     12.0566m  
    6.06000n    692.5126m     10.4866m  
    6.07000n    692.5386m     10.4569m  
    6.08000n    692.5227m     10.4753m  
    6.09000n    692.5226m     10.4753m  
    6.10000n    692.5226m     10.4753m  
    6.11000n    692.5226m     10.4753m  
    6.12000n    692.5226m     10.4753m  
    6.13000n    692.5226m     10.4753m  
    6.14000n    692.5226m     10.4753m  
    6.15000n    692.5226m     10.4753m  
    6.16000n    692.5226m     10.4753m  
    6.17000n    692.5226m     10.4753m  
    6.18000n    692.5226m     10.4753m  
    6.19000n    692.5226m     10.4753m  
    6.20000n    692.5226m     10.4753m  
    6.21000n    692.5226m     10.4753m  
    6.22000n    692.5226m     10.4753m  
    6.23000n    692.5226m     10.4753m  
    6.24000n    692.5226m     10.4753m  
    6.25000n    692.5226m     10.4753m  
    6.26000n    692.5226m     10.4753m  
    6.27000n    692.5226m     10.4753m  
    6.28000n    692.5226m     10.4753m  
    6.29000n    692.5226m     10.4753m  
    6.30000n    692.5226m     10.4753m  
    6.31000n    692.5226m     10.4753m  
    6.32000n    692.5226m     10.4753m  
    6.33000n    692.5226m     10.4753m  
    6.34000n    692.5226m     10.4753m  
    6.35000n    692.5226m     10.4753m  
    6.36000n    692.5226m     10.4753m  
    6.37000n    692.5226m     10.4753m  
    6.38000n    692.5226m     10.4753m  
    6.39000n    692.5226m     10.4753m  
    6.40000n    692.5226m     10.4753m  
    6.41000n    692.5226m     10.4753m  
    6.42000n    692.5226m     10.4753m  
    6.43000n    692.5226m     10.4753m  
    6.44000n    692.5226m     10.4753m  
    6.45000n    692.5226m     10.4753m  
    6.46000n    692.5226m     10.4753m  
    6.47000n    692.5226m     10.4753m  
    6.48000n    692.5226m     10.4753m  
    6.49000n    692.5226m     10.4753m  
    6.50000n    692.5226m     10.4753m  
    6.51000n    692.5226m     10.4753m  
    6.52000n    692.5226m     10.4753m  
    6.53000n    692.5226m     10.4753m  
    6.54000n    692.5226m     10.4753m  
    6.55000n    692.5226m     10.4753m  
    6.56000n    692.5226m     10.4753m  
    6.57000n    692.5226m     10.4753m  
    6.58000n    692.5226m     10.4753m  
    6.59000n    692.5226m     10.4753m  
    6.60000n    692.5226m     10.4753m  
    6.61000n    692.5226m     10.4753m  
    6.62000n    692.5226m     10.4753m  
    6.63000n    692.5226m     10.4753m  
    6.64000n    692.5226m     10.4753m  
    6.65000n    692.5226m     10.4753m  
    6.66000n    692.5226m     10.4753m  
    6.67000n    692.5226m     10.4753m  
    6.68000n    692.5226m     10.4753m  
    6.69000n    692.5226m     10.4753m  
    6.70000n    692.5226m     10.4753m  
    6.71000n    692.5226m     10.4753m  
    6.72000n    692.5226m     10.4753m  
    6.73000n    692.5226m     10.4753m  
    6.74000n    692.5226m     10.4753m  
    6.75000n    692.5226m     10.4753m  
    6.76000n    692.5226m     10.4753m  
    6.77000n    692.5226m     10.4753m  
    6.78000n    692.5226m     10.4753m  
    6.79000n    692.5226m     10.4753m  
    6.80000n    692.5226m     10.4753m  
    6.81000n    692.5226m     10.4753m  
    6.82000n    692.5226m     10.4753m  
    6.83000n    692.5226m     10.4753m  
    6.84000n    692.5226m     10.4753m  
    6.85000n    692.5226m     10.4753m  
    6.86000n    692.5226m     10.4753m  
    6.87000n    692.5226m     10.4753m  
    6.88000n    692.5226m     10.4753m  
    6.89000n    692.5226m     10.4753m  
    6.90000n    692.5226m     10.4753m  
    6.91000n    692.5226m     10.4753m  
    6.92000n    692.5226m     10.4753m  
    6.93000n    692.5226m     10.4753m  
    6.94000n    692.5226m     10.4753m  
    6.95000n    692.5226m     10.4753m  
    6.96000n    692.5226m     10.4753m  
    6.97000n    692.5226m     10.4753m  
    6.98000n    692.5226m     10.4753m  
    6.99000n    692.5226m     10.4753m  
    7.00000n    692.5226m     10.4753m  
    7.01000n    692.5226m     10.4753m  
    7.02000n    692.5226m     10.4753m  
    7.03000n    692.5226m     10.4753m  
    7.04000n    692.5226m     10.4753m  
    7.05000n    692.5226m     10.4753m  
    7.06000n    660.0032m     15.1799m  
    7.07000n    579.2999m     33.0624m  
    7.08000n    234.1297m    412.2159m  
    7.09000n     46.8840m    682.8098m  
    7.10000n     13.0646m    690.3156m  
    7.11000n      9.3894m    691.2715m  
    7.12000n      9.3923m    691.2685m  
    7.13000n      9.3928m    691.2712m  
    7.14000n      9.3906m    691.2668m  
    7.15000n      9.3885m    691.2624m  
    7.16000n      9.3888m    691.2629m  
    7.17000n      9.3898m    691.2646m  
    7.18000n      9.3908m    691.2663m  
    7.19000n      9.3917m    691.2679m  
    7.20000n      9.3927m    691.2696m  
    7.21000n      9.3936m    691.2713m  
    7.22000n      9.3938m    691.2717m  
    7.23000n      9.3935m    691.2710m  
    7.24000n      9.3931m    691.2704m  
    7.25000n      9.3927m    691.2698m  
    7.26000n      9.3923m    691.2692m  
    7.27000n      9.3919m    691.2685m  
    7.28000n      9.3915m    691.2679m  
    7.29000n      9.3911m    691.2673m  
    7.30000n      9.3908m    691.2666m  
    7.31000n      9.3904m    691.2660m  
    7.32000n      9.3900m    691.2654m  
    7.33000n      9.3896m    691.2648m  
    7.34000n      9.3892m    691.2641m  
    7.35000n      9.3888m    691.2635m  
    7.36000n      9.3885m    691.2629m  
    7.37000n      9.3882m    691.2624m  
    7.38000n      9.3884m    691.2627m  
    7.39000n      9.3886m    691.2631m  
    7.40000n      9.3888m    691.2634m  
    7.41000n      9.3890m    691.2637m  
    7.42000n      9.3892m    691.2640m  
    7.43000n      9.3894m    691.2644m  
    7.44000n      9.3896m    691.2647m  
    7.45000n      9.3898m    691.2650m  
    7.46000n      9.3900m    691.2653m  
    7.47000n      9.3902m    691.2656m  
    7.48000n      9.3904m    691.2660m  
    7.49000n      9.3906m    691.2663m  
    7.50000n      9.3908m    691.2666m  
    7.51000n      9.3910m    691.2669m  
    7.52000n      9.3912m    691.2672m  
    7.53000n      9.3914m    691.2676m  
    7.54000n      9.3916m    691.2679m  
    7.55000n      9.3918m    691.2682m  
    7.56000n      9.3920m    691.2685m  
    7.57000n      9.3922m    691.2689m  
    7.58000n      9.3924m    691.2692m  
    7.59000n      9.3926m    691.2695m  
    7.60000n      9.3928m    691.2698m  
    7.61000n      9.3930m    691.2701m  
    7.62000n      9.3932m    691.2705m  
    7.63000n      9.3935m    691.2708m  
    7.64000n      9.3937m    691.2711m  
    7.65000n      9.3939m    691.2714m  
    7.66000n      9.3940m    691.2716m  
    7.67000n      9.3938m    691.2714m  
    7.68000n      9.3936m    691.2711m  
    7.69000n      9.3935m    691.2708m  
    7.70000n      9.3933m    691.2706m  
    7.71000n      9.3931m    691.2703m  
    7.72000n      9.3930m    691.2700m  
    7.73000n      9.3928m    691.2698m  
    7.74000n      9.3926m    691.2695m  
    7.75000n      9.3924m    691.2692m  
    7.76000n      9.3923m    691.2690m  
    7.77000n      9.3921m    691.2687m  
    7.78000n      9.3919m    691.2684m  
    7.79000n      9.3918m    691.2682m  
    7.80000n      9.3916m    691.2679m  
    7.81000n      9.3914m    691.2676m  
    7.82000n      9.3912m    691.2674m  
    7.83000n      9.3911m    691.2671m  
    7.84000n      9.3909m    691.2668m  
    7.85000n      9.3907m    691.2666m  
    7.86000n      9.3906m    691.2663m  
    7.87000n      9.3904m    691.2660m  
    7.88000n      9.3902m    691.2658m  
    7.89000n      9.3900m    691.2655m  
    7.90000n      9.3899m    691.2652m  
    7.91000n      9.3897m    691.2650m  
    7.92000n      9.3895m    691.2647m  
    7.93000n      9.3894m    691.2644m  
    7.94000n      9.3892m    691.2642m  
    7.95000n      9.3890m    691.2639m  
    7.96000n      9.3888m    691.2636m  
    7.97000n      9.3887m    691.2634m  
    7.98000n      9.3885m    691.2631m  
    7.99000n      9.3883m    691.2628m  
    8.00000n      9.3882m    691.2626m  
y
x

        time    voltage      voltage    
                 outin_10     outin_20  
    0.          691.2671m     10.6657m  
   10.00000p    687.4528m     11.0883m  
   20.00000p    672.0368m     13.1867m  
   30.00000p    358.0963m    178.8903m  
   40.00000p     20.7588m    688.6987m  
   50.00000p     11.9740m    691.6433m  
   60.00000p     10.4910m    691.1132m  
   70.00000p     10.4549m    691.1120m  
   80.00000p     10.4766m    691.1114m  
   90.00000p     10.4943m    691.1109m  
  100.00000p     10.4866m    691.1113m  
  110.00000p     10.4788m    691.1117m  
  120.00000p     10.4711m    691.1121m  
  130.00000p     10.4634m    691.1125m  
  140.00000p     10.4567m    691.1129m  
  150.00000p     10.4602m    691.1126m  
  160.00000p     10.4638m    691.1124m  
  170.00000p     10.4673m    691.1122m  
  180.00000p     10.4708m    691.1119m  
  190.00000p     10.4743m    691.1117m  
  200.00000p     10.4779m    691.1115m  
  210.00000p     10.4814m    691.1113m  
  220.00000p     10.4849m    691.1110m  
  230.00000p     10.4884m    691.1108m  
  240.00000p     10.4920m    691.1106m  
  250.00000p     10.4928m    691.1106m  
  260.00000p     10.4911m    691.1107m  
  270.00000p     10.4894m    691.1108m  
  280.00000p     10.4878m    691.1109m  
  290.00000p     10.4861m    691.1110m  
  300.00000p     10.4844m    691.1111m  
  310.00000p     10.4828m    691.1113m  
  320.00000p     10.4811m    691.1114m  
  330.00000p     10.4795m    691.1115m  
  340.00000p     10.4778m    691.1116m  
  350.00000p     10.4761m    691.1117m  
  360.00000p     10.4745m    691.1118m  
  370.00000p     10.4728m    691.1120m  
  380.00000p     10.4711m    691.1121m  
  390.00000p     10.4695m    691.1122m  
  400.00000p     10.4678m    691.1123m  
  410.00000p     10.4661m    691.1124m  
  420.00000p     10.4645m    691.1125m  
  430.00000p     10.4628m    691.1127m  
  440.00000p     10.4612m    691.1128m  
  450.00000p     10.4595m    691.1129m  
  460.00000p     10.4578m    691.1130m  
  470.00000p     10.4577m    691.1130m  
  480.00000p     10.4586m    691.1129m  
  490.00000p     10.4595m    691.1129m  
  500.00000p     10.4604m    691.1128m  
  510.00000p     10.4614m    691.1127m  
  520.00000p     10.4623m    691.1127m  
  530.00000p     10.4632m    691.1126m  
  540.00000p     10.4641m    691.1125m  
  550.00000p     10.4650m    691.1125m  
  560.00000p     10.4659m    691.1124m  
  570.00000p     10.4668m    691.1123m  
  580.00000p     10.4677m    691.1123m  
  590.00000p     10.4686m    691.1122m  
  600.00000p     10.4695m    691.1121m  
  610.00000p     10.4705m    691.1121m  
  620.00000p     10.4714m    691.1120m  
  630.00000p     10.4723m    691.1119m  
  640.00000p     10.4732m    691.1119m  
  650.00000p     10.4741m    691.1118m  
  660.00000p     10.4750m    691.1117m  
  670.00000p     10.4759m    691.1117m  
  680.00000p     10.4768m    691.1116m  
  690.00000p     10.4777m    691.1115m  
  700.00000p     10.4786m    691.1115m  
  710.00000p     10.4796m    691.1114m  
  720.00000p     10.4805m    691.1113m  
  730.00000p     10.4814m    691.1113m  
  740.00000p     10.4823m    691.1112m  
  750.00000p     10.4832m    691.1111m  
  760.00000p     10.4841m    691.1111m  
  770.00000p     10.4850m    691.1110m  
  780.00000p     10.4859m    691.1109m  
  790.00000p     10.4868m    691.1109m  
  800.00000p     10.4877m    691.1108m  
  810.00000p     10.4887m    691.1107m  
  820.00000p     10.4896m    691.1107m  
  830.00000p     10.4905m    691.1106m  
  840.00000p     10.4914m    691.1105m  
  850.00000p     10.4923m    691.1105m  
  860.00000p     10.4932m    691.1104m  
  870.00000p     10.4915m    691.1105m  
  880.00000p     10.4896m    691.1107m  
  890.00000p     10.4877m    691.1108m  
  900.00000p     10.4858m    691.1110m  
  910.00000p     10.4839m    691.1111m  
  920.00000p     10.4820m    691.1113m  
  930.00000p     10.4802m    691.1114m  
  940.00000p     10.4783m    691.1116m  
  950.00000p     10.4764m    691.1117m  
  960.00000p     10.4745m    691.1118m  
  970.00000p     10.4726m    691.1120m  
  980.00000p     10.4708m    691.1121m  
  990.00000p     10.4689m    691.1123m  
    1.00000n     10.4670m    691.1124m  
    1.01000n     10.4651m    691.1126m  
    1.02000n     10.4632m    691.1127m  
    1.03000n     10.4614m    691.1129m  
    1.04000n     10.4595m    691.1130m  
    1.05000n     10.4576m    691.1132m  
    1.06000n     14.7209m    690.7006m  
    1.07000n     34.0598m    687.5040m  
    1.08000n    383.8023m    460.8927m  
    1.09000n    681.3045m     10.3215m  
    1.10000n    689.9819m     10.8604m  
    1.11000n    691.2563m     10.6572m  
    1.12000n    691.2842m     10.6783m  
    1.13000n    691.2665m     10.6650m  
    1.14000n    691.2512m     10.6534m  
    1.15000n    691.2567m     10.6577m  
    1.16000n    691.2622m     10.6620m  
    1.17000n    691.2677m     10.6663m  
    1.18000n    691.2733m     10.6706m  
    1.19000n    691.2788m     10.6749m  
    1.20000n    691.2822m     10.6775m  
    1.21000n    691.2796m     10.6755m  
    1.22000n    691.2769m     10.6734m  
    1.23000n    691.2743m     10.6713m  
    1.24000n    691.2717m     10.6693m  
    1.25000n    691.2691m     10.6672m  
    1.26000n    691.2665m     10.6651m  
    1.27000n    691.2638m     10.6631m  
    1.28000n    691.2612m     10.6610m  
    1.29000n    691.2586m     10.6590m  
    1.30000n    691.2560m     10.6569m  
    1.31000n    691.2534m     10.6548m  
    1.32000n    691.2520m     10.6538m  
    1.33000n    691.2532m     10.6547m  
    1.34000n    691.2544m     10.6556m  
    1.35000n    691.2556m     10.6566m  
    1.36000n    691.2567m     10.6575m  
    1.37000n    691.2579m     10.6584m  
    1.38000n    691.2591m     10.6594m  
    1.39000n    691.2603m     10.6603m  
    1.40000n    691.2614m     10.6612m  
    1.41000n    691.2626m     10.6622m  
    1.42000n    691.2638m     10.6631m  
    1.43000n    691.2650m     10.6640m  
    1.44000n    691.2661m     10.6650m  
    1.45000n    691.2673m     10.6659m  
    1.46000n    691.2685m     10.6668m  
    1.47000n    691.2696m     10.6678m  
    1.48000n    691.2708m     10.6687m  
    1.49000n    691.2720m     10.6696m  
    1.50000n    691.2732m     10.6705m  
    1.51000n    691.2743m     10.6715m  
    1.52000n    691.2755m     10.6724m  
    1.53000n    691.2767m     10.6733m  
    1.54000n    691.2779m     10.6743m  
    1.55000n    691.2790m     10.6752m  
    1.56000n    691.2802m     10.6761m  
    1.57000n    691.2814m     10.6771m  
    1.58000n    691.2823m     10.6778m  
    1.59000n    691.2816m     10.6772m  
    1.60000n    691.2808m     10.6766m  
    1.61000n    691.2801m     10.6761m  
    1.62000n    691.2794m     10.6755m  
    1.63000n    691.2787m     10.6749m  
    1.64000n    691.2779m     10.6743m  
    1.65000n    691.2772m     10.6737m  
    1.66000n    691.2765m     10.6732m  
    1.67000n    691.2758m     10.6726m  
    1.68000n    691.2750m     10.6720m  
    1.69000n    691.2743m     10.6714m  
    1.70000n    691.2736m     10.6709m  
    1.71000n    691.2729m     10.6703m  
    1.72000n    691.2721m     10.6697m  
    1.73000n    691.2714m     10.6691m  
    1.74000n    691.2707m     10.6686m  
    1.75000n    691.2700m     10.6680m  
    1.76000n    691.2693m     10.6674m  
    1.77000n    691.2685m     10.6668m  
    1.78000n    691.2678m     10.6662m  
    1.79000n    691.2671m     10.6657m  
    1.80000n    691.2664m     10.6651m  
    1.81000n    691.2656m     10.6645m  
    1.82000n    691.2649m     10.6639m  
    1.83000n    691.2642m     10.6634m  
    1.84000n    691.2635m     10.6628m  
    1.85000n    691.2627m     10.6622m  
    1.86000n    691.2620m     10.6616m  
    1.87000n    691.2613m     10.6611m  
    1.88000n    691.2606m     10.6605m  
    1.89000n    691.2598m     10.6599m  
    1.90000n    691.2591m     10.6593m  
    1.91000n    691.2584m     10.6588m  
    1.92000n    691.2577m     10.6582m  
    1.93000n    691.2569m     10.6576m  
    1.94000n    691.2562m     10.6570m  
    1.95000n    691.2555m     10.6564m  
    1.96000n    691.2548m     10.6559m  
    1.97000n    691.2540m     10.6553m  
    1.98000n    691.2533m     10.6547m  
    1.99000n    691.2526m     10.6541m  
    2.00000n    691.2519m     10.6536m  
    2.01000n    687.1521m     11.1602m  
    2.02000n    668.9550m     13.8665m  
    2.03000n    344.5403m    149.9125m  
    2.04000n     20.5002m    688.6099m  
    2.05000n     11.5868m    690.1952m  
    2.06000n     10.4690m    691.1156m  
    2.07000n     10.4539m    691.0966m  
    2.08000n     10.4966m    691.1290m  
    2.09000n     10.4737m    691.1085m  
    2.10000n     10.4730m    691.1065m  
    2.11000n     10.4753m    691.1118m  
    2.12000n     10.4753m    691.1117m  
    2.13000n     10.4753m    691.1119m  
    2.14000n     10.4753m    691.1118m  
    2.15000n     10.4753m    691.1117m  
    2.16000n     10.4752m    691.1116m  
    2.17000n     10.4752m    691.1116m  
    2.18000n     10.4752m    691.1117m  
    2.19000n     10.4753m    691.1117m  
    2.20000n     10.4753m    691.1117m  
    2.21000n     10.4753m    691.1118m  
    2.22000n     10.4753m    691.1118m  
    2.23000n     10.4753m    691.1119m  
    2.24000n     10.4753m    691.1118m  
    2.25000n     10.4753m    691.1118m  
    2.26000n     10.4753m    691.1118m  
    2.27000n     10.4753m    691.1118m  
    2.28000n     10.4753m    691.1118m  
    2.29000n     10.4753m    691.1118m  
    2.30000n     10.4753m    691.1118m  
    2.31000n     10.4753m    691.1117m  
    2.32000n     10.4753m    691.1117m  
    2.33000n     10.4753m    691.1117m  
    2.34000n     10.4753m    691.1117m  
    2.35000n     10.4752m    691.1117m  
    2.36000n     10.4752m    691.1117m  
    2.37000n     10.4752m    691.1116m  
    2.38000n     10.4752m    691.1116m  
    2.39000n     10.4752m    691.1116m  
    2.40000n     10.4752m    691.1116m  
    2.41000n     10.4752m    691.1116m  
    2.42000n     10.4752m    691.1116m  
    2.43000n     10.4752m    691.1117m  
    2.44000n     10.4752m    691.1117m  
    2.45000n     10.4752m    691.1117m  
    2.46000n     10.4753m    691.1117m  
[...]
    3.68000n    691.1117m     10.6894m  
    3.69000n    691.1117m     10.6894m  
    3.70000n    691.1117m     10.6894m  
    3.71000n    691.1117m     10.6894m  
    3.72000n    691.1117m     10.6894m  
    3.73000n    691.1117m     10.6894m  
    3.74000n    691.1117m     10.6894m  
    3.75000n    691.1117m     10.6894m  
    3.76000n    691.1117m     10.6894m  
    3.77000n    691.1117m     10.6894m  
    3.78000n    691.1117m     10.6894m  
    3.79000n    691.1117m     10.6894m  
    3.80000n    691.1117m     10.6894m  
    3.81000n    691.1117m     10.6894m  
    3.82000n    691.1117m     10.6894m  
    3.83000n    691.1117m     10.6894m  
    3.84000n    691.1117m     10.6894m  
    3.85000n    691.1117m     10.6894m  
    3.86000n    691.1117m     10.6894m  
    3.87000n    691.1117m     10.6894m  
    3.88000n    691.1117m     10.6894m  
    3.89000n    691.1117m     10.6894m  
    3.90000n    691.1117m     10.6894m  
    3.91000n    691.1117m     10.6894m  
    3.92000n    691.1117m     10.6894m  
    3.93000n    691.1117m     10.6894m  
    3.94000n    691.1117m     10.6894m  
    3.95000n    691.1117m     10.6894m  
    3.96000n    691.1117m     10.6894m  
    3.97000n    691.1117m     10.6894m  
    3.98000n    691.1117m     10.6894m  
    3.99000n    691.1117m     10.6894m  
    4.00000n    691.1117m     10.6894m  
    4.01000n    691.1117m     10.6894m  
    4.02000n    691.1117m     10.6894m  
    4.03000n    691.1117m     10.6894m  
    4.04000n    691.1117m     10.6894m  
    4.05000n    691.1117m     10.6894m  
    4.06000n    690.7762m     10.7138m  
    4.07000n    688.4943m     11.0153m  
    4.08000n    424.0246m    113.1985m  
    4.09000n     12.0504m    691.8751m  
    4.10000n     11.6077m    692.4815m  
    4.11000n     10.6624m    691.0930m  
    4.12000n     10.6573m    691.0736m  
    4.13000n     10.6441m    691.0631m  
    4.14000n     10.6666m    691.0864m  
    4.15000n     10.6891m    691.1097m  
    4.16000n     10.6927m    691.1131m  
    4.17000n     10.6829m    691.1025m  
    4.18000n     10.6731m    691.0919m  
    4.19000n     10.6634m    691.0813m  
    4.20000n     10.6536m    691.0707m  
    4.21000n     10.6438m    691.0601m  
    4.22000n     10.6340m    691.0495m  
    4.23000n     10.6376m    691.0534m  
    4.24000n     10.6415m    691.0578m  
    4.25000n     10.6455m    691.0622m  
    4.26000n     10.6495m    691.0666m  
    4.27000n     10.6534m    691.0710m  
    4.28000n     10.6574m    691.0754m  
    4.29000n     10.6614m    691.0797m  
    4.30000n     10.6653m    691.0841m  
    4.31000n     10.6693m    691.0885m  
    4.32000n     10.6733m    691.0929m  
    4.33000n     10.6772m    691.0973m  
    4.34000n     10.6812m    691.1017m  
    4.35000n     10.6852m    691.1061m  
    4.36000n     10.6891m    691.1105m  
    4.37000n     10.6931m    691.1148m  
    4.38000n     10.6971m    691.1192m  
    4.39000n     10.6955m    691.1174m  
    4.40000n     10.6934m    691.1151m  
    4.41000n     10.6913m    691.1128m  
    4.42000n     10.6892m    691.1104m  
    4.43000n     10.6871m    691.1081m  
    4.44000n     10.6850m    691.1058m  
    4.45000n     10.6829m    691.1034m  
    4.46000n     10.6808m    691.1011m  
    4.47000n     10.6787m    691.0988m  
    4.48000n     10.6766m    691.0965m  
    4.49000n     10.6746m    691.0941m  
    4.50000n     10.6725m    691.0918m  
    4.51000n     10.6704m    691.0895m  
    4.52000n     10.6683m    691.0871m  
    4.53000n     10.6662m    691.0848m  
    4.54000n     10.6641m    691.0825m  
    4.55000n     10.6620m    691.0801m  
    4.56000n     10.6599m    691.0778m  
    4.57000n     10.6578m    691.0755m  
    4.58000n     10.6557m    691.0731m  
    4.59000n     10.6537m    691.0708m  
    4.60000n     10.6516m    691.0685m  
    4.61000n     10.6495m    691.0662m  
    4.62000n     10.6474m    691.0638m  
    4.63000n     10.6453m    691.0615m  
    4.64000n     10.6432m    691.0592m  
    4.65000n     10.6411m    691.0568m  
    4.66000n     10.6390m    691.0545m  
    4.67000n     10.6369m    691.0522m  
    4.68000n     10.6349m    691.0498m  
    4.69000n     10.6353m    691.0504m  
    4.70000n     10.6370m    691.0523m  
    4.71000n     10.6387m    691.0542m  
    4.72000n     10.6405m    691.0561m  
    4.73000n     10.6422m    691.0581m  
    4.74000n     10.6439m    691.0600m  
    4.75000n     10.6456m    691.0619m  
    4.76000n     10.6473m    691.0638m  
    4.77000n     10.6490m    691.0658m  
    4.78000n     10.6508m    691.0677m  
    4.79000n     10.6525m    691.0696m  
    4.80000n     10.6542m    691.0715m  
    4.81000n     10.6559m    691.0735m  
    4.82000n     10.6576m    691.0754m  
    4.83000n     10.6593m    691.0773m  
    4.84000n     10.6611m    691.0792m  
    4.85000n     10.6628m    691.0811m  
    4.86000n     10.6645m    691.0831m  
    4.87000n     10.6662m    691.0850m  
    4.88000n     10.6679m    691.0869m  
    4.89000n     10.6696m    691.0888m  
    4.90000n     10.6714m    691.0908m  
    4.91000n     10.6731m    691.0927m  
    4.92000n     10.6748m    691.0946m  
    4.93000n     10.6765m    691.0965m  
    4.94000n     10.6782m    691.0985m  
    4.95000n     10.6799m    691.1004m  
    4.96000n     10.6817m    691.1023m  
    4.97000n     10.6834m    691.1042m  
    4.98000n     10.6851m    691.1062m  
    4.99000n     10.6868m    691.1081m  
    5.00000n     10.6885m    691.1100m  
    5.01000n     10.6902m    691.1119m  
    5.02000n     10.6920m    691.1139m  
    5.03000n     10.6937m    691.1158m  
    5.04000n     10.6954m    691.1177m  
    5.05000n     10.6971m    691.1196m  
    5.06000n     10.6660m    691.0842m  
    5.07000n     10.6656m    691.0844m  
    5.08000n     10.6657m    691.0844m  
    5.09000n     10.6657m    691.0843m  
    5.10000n     10.6657m    691.0843m  
    5.11000n     10.6657m    691.0843m  
    5.12000n     10.6657m    691.0843m  
    5.13000n     10.6657m    691.0843m  
    5.14000n     10.6657m    691.0843m  
    5.15000n     10.6657m    691.0843m  
    5.16000n     10.6657m    691.0843m  
    5.17000n     10.6657m    691.0843m  
    5.18000n     10.6657m    691.0843m  
    5.19000n     10.6657m    691.0843m  
    5.20000n     10.6657m    691.0843m  
    5.21000n     10.6657m    691.0843m  
    5.22000n     10.6657m    691.0843m  
    5.23000n     10.6657m    691.0843m  
    5.24000n     10.6657m    691.0843m  
    5.25000n     10.6657m    691.0843m  
    5.26000n     10.6657m    691.0843m  
    5.27000n     10.6657m    691.0843m  
    5.28000n     10.6657m    691.0843m  
    5.29000n     10.6657m    691.0843m  
    5.30000n     10.6657m    691.0843m  
    5.31000n     10.6657m    691.0843m  
    5.32000n     10.6657m    691.0843m  
    5.33000n     10.6657m    691.0843m  
    5.34000n     10.6657m    691.0843m  
    5.35000n     10.6657m    691.0843m  
    5.36000n     10.6657m    691.0843m  
    5.37000n     10.6657m    691.0843m  
    5.38000n     10.6657m    691.0843m  
    5.39000n     10.6657m    691.0843m  
    5.40000n     10.6657m    691.0843m  
    5.41000n     10.6657m    691.0843m  
    5.42000n     10.6657m    691.0843m  
    5.43000n     10.6657m    691.0843m  
    5.44000n     10.6657m    691.0843m  
    5.45000n     10.6657m    691.0843m  
    5.46000n     10.6657m    691.0843m  
    5.47000n     10.6657m    691.0843m  
    5.48000n     10.6657m    691.0843m  
    5.49000n     10.6657m    691.0843m  
    5.50000n     10.6657m    691.0843m  
    5.51000n     10.6657m    691.0843m  
    5.52000n     10.6657m    691.0843m  
    5.53000n     10.6657m    691.0843m  
    5.54000n     10.6657m    691.0843m  
    5.55000n     10.6657m    691.0843m  
    5.56000n     10.6657m    691.0843m  
    5.57000n     10.6657m    691.0843m  
    5.58000n     10.6657m    691.0843m  
    5.59000n     10.6657m    691.0843m  
    5.60000n     10.6657m    691.0843m  
    5.61000n     10.6657m    691.0843m  
    5.62000n     10.6657m    691.0843m  
    5.63000n     10.6657m    691.0843m  
    5.64000n     10.6657m    691.0843m  
    5.65000n     10.6657m    691.0843m  
    5.66000n     10.6657m    691.0843m  
    5.67000n     10.6657m    691.0843m  
    5.68000n     10.6657m    691.0843m  
    5.69000n     10.6657m    691.0843m  
    5.70000n     10.6657m    691.0843m  
    5.71000n     10.6657m    691.0843m  
    5.72000n     10.6657m    691.0843m  
    5.73000n     10.6657m    691.0843m  
    5.74000n     10.6657m    691.0843m  
    5.75000n     10.6657m    691.0843m  
    5.76000n     10.6657m    691.0843m  
    5.77000n     10.6657m    691.0843m  
    5.78000n     10.6657m    691.0843m  
    5.79000n     10.6657m    691.0843m  
    5.80000n     10.6657m    691.0843m  
    5.81000n     10.6657m    691.0843m  
    5.82000n     10.6657m    691.0843m  
    5.83000n     10.6657m    691.0843m  
    5.84000n     10.6657m    691.0843m  
    5.85000n     10.6657m    691.0843m  
    5.86000n     10.6657m    691.0843m  
    5.87000n     10.6657m    691.0843m  
    5.88000n     10.6657m    691.0843m  
    5.89000n     10.6657m    691.0843m  
    5.90000n     10.6657m    691.0843m  
    5.91000n     10.6657m    691.0843m  
    5.92000n     10.6657m    691.0843m  
    5.93000n     10.6657m    691.0843m  
    5.94000n     10.6657m    691.0843m  
    5.95000n     10.6657m    691.0843m  
    5.96000n     10.6657m    691.0843m  
    5.97000n     10.6657m    691.0843m  
    5.98000n     10.6657m    691.0843m  
    5.99000n     10.6657m    691.0843m  
    6.00000n     10.6657m    691.0843m  
    6.01000n     10.6657m    691.0843m  
    6.02000n     10.6657m    691.0843m  
    6.03000n     10.6657m    691.0843m  
    6.04000n     10.6657m    691.0843m  
    6.05000n     10.6657m    691.0843m  
    6.06000n     10.6657m    691.0843m  
    6.07000n     10.6657m    691.0843m  
    6.08000n     10.6657m    691.0843m  
    6.09000n     10.6657m    691.0843m  
    6.10000n     10.6657m    691.0843m  
    6.11000n     10.6657m    691.0843m  
    6.12000n     10.6657m    691.0843m  
    6.13000n     10.6657m    691.0843m  
    6.14000n     10.6657m    691.0843m  
    6.15000n     10.6657m    691.0843m  
    6.16000n     10.6657m    691.0843m  
    6.17000n     10.6657m    691.0843m  
    6.18000n     10.6657m    691.0843m  
    6.19000n     10.6657m    691.0843m  
    6.20000n     10.6657m    691.0843m  
    6.21000n     10.6657m    691.0843m  
    6.22000n     10.6657m    691.0843m  
    6.23000n     10.6657m    691.0843m  
    6.24000n     10.6657m    691.0843m  
    6.25000n     10.6657m    691.0843m  
    6.26000n     10.6657m    691.0843m  
    6.27000n     10.6657m    691.0843m  
    6.28000n     10.6657m    691.0843m  
    6.29000n     10.6657m    691.0843m  
    6.30000n     10.6657m    691.0843m  
    6.31000n     10.6657m    691.0843m  
    6.32000n     10.6657m    691.0843m  
    6.33000n     10.6657m    691.0843m  
    6.34000n     10.6657m    691.0843m  
    6.35000n     10.6657m    691.0843m  
    6.36000n     10.6657m    691.0843m  
    6.37000n     10.6657m    691.0843m  
    6.38000n     10.6657m    691.0843m  
    6.39000n     10.6657m    691.0843m  
    6.40000n     10.6657m    691.0843m  
    6.41000n     10.6657m    691.0843m  
    6.42000n     10.6657m    691.0843m  
    6.43000n     10.6657m    691.0843m  
    6.44000n     10.6657m    691.0843m  
    6.45000n     10.6657m    691.0843m  
    6.46000n     10.6657m    691.0843m  
    6.47000n     10.6657m    691.0843m  
    6.48000n     10.6657m    691.0843m  
    6.49000n     10.6657m    691.0843m  
    6.50000n     10.6657m    691.0843m  
    6.51000n     10.6657m    691.0843m  
    6.52000n     10.6657m    691.0843m  
    6.53000n     10.6657m    691.0843m  
    6.54000n     10.6657m    691.0843m  
    6.55000n     10.6657m    691.0843m  
    6.56000n     10.6657m    691.0843m  
    6.57000n     10.6657m    691.0843m  
    6.58000n     10.6657m    691.0843m  
    6.59000n     10.6657m    691.0843m  
    6.60000n     10.6657m    691.0843m  
    6.61000n     10.6657m    691.0843m  
    6.62000n     10.6657m    691.0843m  
    6.63000n     10.6657m    691.0843m  
    6.64000n     10.6657m    691.0843m  
    6.65000n     10.6657m    691.0843m  
    6.66000n     10.6657m    691.0843m  
    6.67000n     10.6657m    691.0843m  
    6.68000n     10.6657m    691.0843m  
    6.69000n     10.6657m    691.0843m  
    6.70000n     10.6657m    691.0843m  
    6.71000n     10.6657m    691.0843m  
    6.72000n     10.6657m    691.0843m  
    6.73000n     10.6657m    691.0843m  
    6.74000n     10.6657m    691.0843m  
    6.75000n     10.6657m    691.0843m  
    6.76000n     10.6657m    691.0843m  
    6.77000n     10.6657m    691.0843m  
    6.78000n     10.6657m    691.0843m  
    6.79000n     10.6657m    691.0843m  
    6.80000n     10.6657m    691.0843m  
    6.81000n     10.6657m    691.0843m  
    6.82000n     10.6657m    691.0843m  
    6.83000n     10.6657m    691.0843m  
    6.84000n     10.6657m    691.0843m  
    6.85000n     10.6657m    691.0843m  
    6.86000n     10.6657m    691.0843m  
    6.87000n     10.6657m    691.0843m  
    6.88000n     10.6657m    691.0843m  
    6.89000n     10.6657m    691.0843m  
    6.90000n     10.6657m    691.0843m  
    6.91000n     10.6657m    691.0843m  
    6.92000n     10.6657m    691.0843m  
    6.93000n     10.6657m    691.0843m  
    6.94000n     10.6657m    691.0843m  
    6.95000n     10.6657m    691.0843m  
    6.96000n     10.6657m    691.0843m  
    6.97000n     10.6657m    691.0843m  
    6.98000n     10.6657m    691.0843m  
    6.99000n     10.6657m    691.0843m  
    7.00000n     10.6657m    691.0843m  
    7.01000n     10.6657m    691.0843m  
    7.02000n     10.6657m    691.0843m  
    7.03000n     10.6657m    691.0843m  
    7.04000n     10.6657m    691.0843m  
    7.05000n     10.6657m    691.0843m  
    7.06000n     10.6657m    691.0843m  
    7.07000n     10.6657m    691.0843m  
    7.08000n     10.6657m    691.0843m  
    7.09000n     10.6657m    691.0843m  
    7.10000n     10.6657m    691.0843m  
    7.11000n     10.6657m    691.0843m  
    7.12000n     10.6657m    691.0843m  
    7.13000n     10.6657m    691.0843m  
    7.14000n     10.6657m    691.0843m  
    7.15000n     10.6657m    691.0843m  
    7.16000n     10.6657m    691.0843m  
    7.17000n     10.6657m    691.0843m  
    7.18000n     10.6657m    691.0843m  
    7.19000n     10.6657m    691.0843m  
    7.20000n     10.6657m    691.0843m  
    7.21000n     10.6657m    691.0843m  
    7.22000n     10.6657m    691.0843m  
    7.23000n     10.6657m    691.0843m  
    7.24000n     10.6657m    691.0843m  
    7.25000n     10.6657m    691.0843m  
    7.26000n     10.6657m    691.0843m  
    7.27000n     10.6657m    691.0843m  
    7.28000n     10.6657m    691.0843m  
    7.29000n     10.6657m    691.0843m  
    7.30000n     10.6657m    691.0843m  
    7.31000n     10.6657m    691.0843m  
    7.32000n     10.6657m    691.0843m  
    7.33000n     10.6657m    691.0843m  
    7.34000n     10.6657m    691.0843m  
    7.35000n     10.6657m    691.0843m  
    7.36000n     10.6657m    691.0843m  
    7.37000n     10.6657m    691.0843m  
    7.38000n     10.6657m    691.0843m  
    7.39000n     10.6657m    691.0843m  
    7.40000n     10.6657m    691.0843m  
    7.41000n     10.6657m    691.0843m  
    7.42000n     10.6657m    691.0843m  
    7.43000n     10.6657m    691.0843m  
    7.44000n     10.6657m    691.0843m  
    7.45000n     10.6657m    691.0843m  
    7.46000n     10.6657m    691.0843m  
    7.47000n     10.6657m    691.0843m  
    7.48000n     10.6657m    691.0843m  
    7.49000n     10.6657m    691.0843m  
    7.50000n     10.6657m    691.0843m  
    7.51000n     10.6657m    691.0843m  
    7.52000n     10.6657m    691.0843m  
    7.53000n     10.6657m    691.0843m  
    7.54000n     10.6657m    691.0843m  
    7.55000n     10.6657m    691.0843m  
    7.56000n     10.6657m    691.0843m  
    7.57000n     10.6657m    691.0843m  
    7.58000n     10.6657m    691.0843m  
    7.59000n     10.6657m    691.0843m  
    7.60000n     10.6657m    691.0843m  
    7.61000n     10.6657m    691.0843m  
    7.62000n     10.6657m    691.0843m  
    7.63000n     10.6657m    691.0843m  
    7.64000n     10.6657m    691.0843m  
    7.65000n     10.6657m    691.0843m  
    7.66000n     10.6657m    691.0843m  
    7.67000n     10.6657m    691.0843m  
    7.68000n     10.6657m    691.0843m  
    7.69000n     10.6657m    691.0843m  
    7.70000n     10.6657m    691.0843m  
    7.71000n     10.6657m    691.0843m  
    7.72000n     10.6657m    691.0843m  
    7.73000n     10.6657m    691.0843m  
    7.74000n     10.6657m    691.0843m  
    7.75000n     10.6657m    691.0843m  
    7.76000n     10.6657m    691.0843m  
    7.77000n     10.6657m    691.0843m  
    7.78000n     10.6657m    691.0843m  
    7.79000n     10.6657m    691.0843m  
    7.80000n     10.6657m    691.0843m  
    7.81000n     10.6657m    691.0843m  
    7.82000n     10.6657m    691.0843m  
    7.83000n     10.6657m    691.0843m  
    7.84000n     10.6657m    691.0843m  
    7.85000n     10.6657m    691.0843m  
    7.86000n     10.6657m    691.0843m  
    7.87000n     10.6657m    691.0843m  
    7.88000n     10.6657m    691.0843m  
    7.89000n     10.6657m    691.0843m  
    7.90000n     10.6657m    691.0843m  
    7.91000n     10.6657m    691.0843m  
    7.92000n     10.6657m    691.0843m  
    7.93000n     10.6657m    691.0843m  
    7.94000n     10.6657m    691.0843m  
    7.95000n     10.6657m    691.0843m  
    7.96000n     10.6657m    691.0843m  
    7.97000n     10.6657m    691.0843m  
    7.98000n     10.6657m    691.0843m  
    7.99000n     10.6657m    691.0843m  
    8.00000n     10.6657m    691.0843m  
y
 inv_avg_power00=   1.6347u  from=   0.          to=   8.0000n
 peakpower00=  15.7563u    at=   2.0263n
             from=   0.         to=   8.0000n
 power_avg=  22.5835u  from=   0.          to=   8.0000n
 avg_power= -22.5218u  from=   0.          to=   8.0000n

          ***** job concluded
1****** HSPICE -- F-2011.09-SP2 64-BIT (Feb 27 2012) linux ******               
 ******  
 $this uut was automatically generated by:

  ******  job statistics summary tnom=  25.000 temp=  25.000 *****
  
  
 ******  Machine Information  ******
 CPU:
 model name	: Intel(R) Xeon(R) CPU E5-2650 v4 @ 2.20GHz
 cpu MHz	: 2693.195
  
 OS:
 Linux version 3.10.0-693.17.1.el7.x86_64 (mockbuild@x86-041.build.eng.bos.redha
 t.com) (gcc version 4.8.5 20150623 (Red Hat 4.8.5-16) (GCC) ) #1 SMP Sun Jan 14
  10:36:03 EST 2018


  ******  HSPICE Threads Information  ******

  Command Line Threads Count :     1
  Available CPU Count        :    24
  Actual Threads Count       :     1


  ******  Circuit Statistics  ******
  # nodes       =      83 # elements   =      34
  # resistors   =       0 # capacitors =       0 # inductors   =       0
  # mutual_inds =       0 # vccs       =       0 # vcvs        =       0
  # cccs        =       0 # ccvs       =       0 # volt_srcs   =       4
  # curr_srcs   =       0 # diodes     =       0 # bjts        =       0
  # jfets       =       0 # mosfets    =      30 # U elements  =       0
  # T elements  =       0 # W elements =       0 # B elements  =       0
  # S elements  =       0 # P elements =       0 # va device   =       0
  # vector_srcs =       0


  ******  Runtime Statistics (seconds)  ******

  analysis           time    # points   tot. iter  conv.iter
  op point           0.03           1         112
  transient          0.13         801        1173         274 rev=        17
  readin             0.01
  errchk             0.00
  setup              0.00
  output             0.01


           peak memory used        135.46 megabytes
           total cpu time            0.18 seconds
           total elapsed time        0.44 seconds
           job started at     18:49:38 09/11/2020
           job ended   at     18:49:39 09/11/2020


 lic: Release hspice token(s) 
