***** HSPICE -- F-2011.09-SP2 64-BIT (Feb 27 2012) linux ******
 Input File: ptm7hp.sp
 lic:
 lic: FLEXlm: v10.8
 lic: USER:   iliabautista         HOSTNAME: itn1.rc.usf.edu
 lic: HOSTID:                      PID:      106199
 lic: Using FLEXlm license file:
 lic: 27000@license0.rc.usf.edu
 lic: Checkout 1 hspice
 lic: License/Maintenance for hspice will expire on 18-jul-2021/2019.06
 lic: 1(in_use)/50(total) FLOATING license(s) on SERVER license0.rc.usf.edu
 lic:
 init: begin read circuit files,  cpu clock=  2.00E-02
       option post     =     2.00
 init: end read circuit files,  cpu clock=  2.00E-02 memory=       156 kb
 init: begin check errors,  cpu clock=  2.00E-02
 init: end check errors,  cpu clock=  4.00E-02 memory=       157 kb
 init: begin setup matrix, pivot=     0 cpu clock=  4.00E-02
       establish matrix -- done,  cpu clock=  4.00E-02 memory=       178 kb
       re-order matrix -- done,  cpu clock=  4.00E-02 memory=       174 kb
 init: end setup matrix,  cpu clock=  4.00E-02 memory=       217 kb
 dcop: begin dcop,  cpu clock=  4.00E-02
 dcop: end dcop,  cpu clock=  4.00E-02 memory=       217 kb  tot_iter=       5
 output: ptm7hp.mt0
 sweep: tran tran0    begin, stop_t=  8.00E-09 #sweeps= 801 cpu clock=  4.00E-02
 tran: time= 8.3030E-10 tot_iter=      66 conv_iter=      18 cpu clock= 5.00E-02
 tran: time= 1.7156E-09 tot_iter=     165 conv_iter=      43 cpu clock= 6.00E-02
 tran: time= 2.5375E-09 tot_iter=     274 conv_iter=      67 cpu clock= 7.00E-02
 tran: time= 3.3004E-09 tot_iter=     355 conv_iter=      88 cpu clock= 8.00E-02
 tran: time= 4.0000E-09 tot_iter=     361 conv_iter=      91 cpu clock= 8.00E-02
 tran: time= 4.8840E-09 tot_iter=     433 conv_iter=     110 cpu clock= 9.00E-02
 tran: time= 5.9347E-09 tot_iter=     527 conv_iter=     134 cpu clock= 1.00E-01
 tran: time= 6.4895E-09 tot_iter=     602 conv_iter=     153 cpu clock= 1.10E-01
 tran: time= 7.2429E-09 tot_iter=     688 conv_iter=     176 cpu clock= 1.20E-01
 tran: time= 8.0000E-09 tot_iter=     694 conv_iter=     179 cpu clock= 1.20E-01
 sweep: tran tran0    end,  cpu clock=  1.20E-01 memory=       217 kb
>info:         ***** hspice job concluded
 lic: Release hspice token(s)
