***** HSPICE -- F-2011.09-SP2 64-BIT (Feb 27 2012) linux ******
 Input File: ptm7hp.sp
 lic:
 lic: FLEXlm: v10.8
 lic: USER:   iliabautista         HOSTNAME: itn0.rc.usf.edu
 lic: HOSTID:                      PID:      17503
 lic: Using FLEXlm license file:
 lic: 27000@license0.rc.usf.edu
 lic: Checkout 1 hspice
 lic: License/Maintenance for hspice will expire on 18-jul-2021/2019.06
 lic: 1(in_use)/50(total) FLOATING license(s) on SERVER license0.rc.usf.edu
 lic:
 init: begin read circuit files,  cpu clock=  3.00E-02
       option post     =     2.00
 init: end read circuit files,  cpu clock=  3.00E-02 memory=       154 kb
 init: begin check errors,  cpu clock=  3.00E-02
 init: end check errors,  cpu clock=  4.00E-02 memory=       154 kb
 init: begin setup matrix, pivot=     0 cpu clock=  4.00E-02
       establish matrix -- done,  cpu clock=  4.00E-02 memory=       165 kb
       re-order matrix -- done,  cpu clock=  4.00E-02 memory=       163 kb
 init: end setup matrix,  cpu clock=  4.00E-02 memory=       189 kb
 dcop: begin dcop,  cpu clock=  4.00E-02
 dcop: end dcop,  cpu clock=  4.00E-02 memory=       189 kb  tot_iter=       5
 output: ptm7hp.mt0
 sweep: tran tran0    begin, stop_t=  4.00E-09 #sweeps= 401 cpu clock=  4.00E-02
 tran: time= 5.9543E-10 tot_iter=     117 conv_iter=      33 cpu clock= 5.00E-02
 tran: time= 9.9543E-10 tot_iter=     121 conv_iter=      35 cpu clock= 5.00E-02
 tran: time= 1.2197E-09 tot_iter=     267 conv_iter=      70 cpu clock= 6.00E-02
 tran: time= 1.7525E-09 tot_iter=     279 conv_iter=      75 cpu clock= 6.00E-02
 tran: time= 2.0000E-09 tot_iter=     283 conv_iter=      77 cpu clock= 6.00E-02
 tran: time= 2.5825E-09 tot_iter=     433 conv_iter=     115 cpu clock= 7.00E-02
 tran: time= 2.9825E-09 tot_iter=     437 conv_iter=     117 cpu clock= 7.00E-02
 tran: time= 3.2284E-09 tot_iter=     622 conv_iter=     158 cpu clock= 8.00E-02
 tran: time= 3.6053E-09 tot_iter=     631 conv_iter=     162 cpu clock= 8.00E-02
 tran: time= 4.0000E-09 tot_iter=     635 conv_iter=     164 cpu clock= 8.00E-02
 sweep: tran tran0    end,  cpu clock=  8.00E-02 memory=       189 kb
>info:         ***** hspice job concluded
 lic: Release hspice token(s)
