$DATA1 SOURCE='HSPICE' VERSION='F-2011.09-SP2 64-BIT'
.TITLE '$this uut was automatically generated by:'
 power_avg        avg_power        inv_avg_power    peakpower         
 trf_delay_1      tfr_delay_1      trf_delay_2      tfr_delay_2       
 temper           alter#            
  5.914e-06       -1.357e-09          failed           failed         
  1.694e-12        2.105e-12        1.740e-12        2.159e-12        
   25.0000        1                 
