 ****** HSPICE -- F-2011.09-SP2 64-BIT (Feb 27 2012) linux ******               
  Copyright (C) 2011 Synopsys, Inc. All Rights Reserved.                        
  Unpublished-rights reserved under US copyright laws.
  This program is protected by law and is subject to the
  terms and conditions of the license agreement from Synopsys.
  Use of this program is your acceptance to be bound by the
  license agreement. HSPICE is the trademark of Synopsys, Inc.
  Input File: ptm10hp.sp                                                        
  Command line options: ptm10hp.sp
 lic:  
 lic: FLEXlm: v10.8 
 lic: USER:   iliabautista         HOSTNAME: itn0.rc.usf.edu 
 lic: HOSTID:                      PID:      78145 
 lic: Using FLEXlm license file: 
 lic: 27000@license0.rc.usf.edu 
 lic: Checkout 1 hspice 
 lic: License/Maintenance for hspice will expire on 18-jul-2021/2019.06 
 lic: 1(in_use)/50(total) FLOATING license(s) on SERVER license0.rc.usf.edu 
 lic:   
  **warning** (../modelfiles/hp/10nfet.pm:4) Model nfet device geometries will not be checked against the limits set by lmin, lmax, nfinmin and nfinmax. To enable this check, add a period(.) to the model name(i.e. enable model selector).
1****** HSPICE -- F-2011.09-SP2 64-BIT (Feb 27 2012) linux ******               
 ******  
 $ netlist of inverter

  ******  circuit name directory
 circuit number to circuit name directory
   number circuitname                     definition         multiplier
        0 main circuit
        1 xinput_0.                       inverter           1.00 
        2 xinput_1.                       inverter           1.00 
        3 xmodel_uut_grid.                model_uut_grid     1.00 
        4 xoutput_00.                     inverter           1.00 
        5 xoutput_10.                     inverter           1.00 
        6 xinput_0.xpfet.                 pfet               1.00 
        7 xinput_0.xnfet.                 nfet               1.00 
        8 xinput_1.xpfet.                 pfet               1.00 
        9 xinput_1.xnfet.                 nfet               1.00 
       10 xmodel_uut_grid.xinverter00.    inverter           1.00 
       11 xmodel_uut_grid.xinverter10.    inverter           1.00 
       12 xmodel_uut_grid.xinverter01.    inverter           1.00 
       13 xmodel_uut_grid.xinverter11.    inverter           1.00 
       14 xoutput_00.xpfet.               pfet               1.00 
       15 xoutput_00.xnfet.               nfet               1.00 
       16 xoutput_10.xpfet.               pfet               1.00 
       17 xoutput_10.xnfet.               nfet               1.00 
       18 xmodel_uut_grid.xinverter00.xpfet.
                                            pfet               1.00 
       19 xmodel_uut_grid.xinverter00.xnfet.
                                            nfet               1.00 
       20 xmodel_uut_grid.xinverter10.xpfet.
                                            pfet               1.00 
       21 xmodel_uut_grid.xinverter10.xnfet.
                                            nfet               1.00 
       22 xmodel_uut_grid.xinverter01.xpfet.
                                            pfet               1.00 
       23 xmodel_uut_grid.xinverter01.xnfet.
                                            nfet               1.00 
       24 xmodel_uut_grid.xinverter11.xpfet.
                                            pfet               1.00 
       25 xmodel_uut_grid.xinverter11.xnfet.
                                            nfet               1.00 
1****** HSPICE -- F-2011.09-SP2 64-BIT (Feb 27 2012) linux ******               
 ******  
 $ netlist of inverter

  ******  mos   model parameters tnom=  25.000 temp=  25.000 *****
 Model Name: pfet 
 BSIM-MG BULK Model(Level72)
   VERSION = 105.03  
   DEVTYPE = -1 
   BULKMOD = 1  
   COREMOD = 0 
   GEOMOD = 1 
   RDSMOD = 1 
   IGCMOD = 1 
   IGBMOD = 1 
   GIDLMOD = 0 
   IIMOD = 0 
   NQSMOD = 0 
   SHMOD = 0 
   RGATEMOD = 0 
   RGEOMOD = 1 
   CGEOMOD = 2 
   CAPMOD = 0 
   LINT =  6e-10 m
   LL =      0 m^(LLN+1)
   LLN =      1 
   DLC =      0 m
   DLBIN =      0 
   LLC =      0 m^(LLN+1)
   EOT = 6.8e-10 m
   TOXP = 1.2e-09 m
   EOTBOX = 1.4e-07 m
   HFIN = 2.1e-08 m
   FECH =      1 
   DELTAW =      0 m
   FECHCV =      1 
   DELTAWCV =      0 m
   NBODY = 2.5e+22 m^-3
   NSD =  3e+26 m^-3
   PHIG =  4.751 eV
   EPSROX =    3.9 
   EPSRSUB =   11.9 
   EASUB =   4.05 eV
   NI0SUB = 1.1e+16 m^-3
   BG0SUB =   1.12 eV
   NC0SUB = 2.86e+25 m^-3
   NGATE =      0 m^-3
   CIT = 1.3e-05 F/m^2
   CDSC =  0.032 F/m^2
   CDSCD =  0.007 F/m^2
   CDSCDR =  0.007 
   DVT0 =   0.01 
   DVT1 =   0.69 
   PHIN =   0.05 V
   ETA0 =   0.93 
   ETA0R =   0.93 
   DSUB =    0.9 
   K1RSCE =      0 V^1/2
   LPE0 =  5e-09 m
   DVTSHIFT =      0 
   QMFACTOR =      0 
   QMTCENIV =      0 
   QMTCENCV =      0 
   AQMTCEN =      0 
   BQMTCEN = 1.2e-08 
   ETAQM =   0.54 
   QM0 = 0.001143 
   PQM =   0.66 
   QM0ACC =  0.001 
   PQMACC =   0.66 
   VSAT = 1.29e+05 
   AVSAT =      0 
   BVSAT =  1e-07 
   VSAT1 = 1.29e+05 
   AVSAT1 =      0 
   BVSAT1 =  1e-07 
   DELTAVSAT =      1 
   KSATIV =    0.8 
   MEXP =      3 
   AMEXP =      0 
   BMEXP =      1 
   PTWG =      0 
   APTWG =      0 
   BPTWG =  1e-07 
   AT = -0.00156 
   TMEXP =      0 
   PTWGT =  0.004 
   U0 = 0.0376 
   ETAMOB =      2 
   UP =      0 
   LPA =      1 
   UA =    0.3 
   AUA =      0 
   BUA =  1e-07 
   EU =    1.8 
   AEU =      0 
   BEU =  1e-07 
   UD =      0 
   AUD =      0 
   BUD =  5e-08 
   UCS =      0 
   UTE =      0 
   UTL = -0.0015 
   UA1 = 0.001032 
   UD1 =      0 
   UCSTE = -0.00478 
   RDSWMIN =      0 
   RDSW =    100 
   ARDSW =      0 
   BRDSW =  1e-07 
   RSWMIN =      0 
   RSW =      0 
   ARSW =      0 
   BRSW =  1e-07 
   RDWMIN =      0 
   RDW =      0 
   ARDW =      0 
   BRDW =  1e-07 
   PRWG =      0 
   WR =      1 
   PRT =  0.001 
   PDIBL1 =    1.3 
   PDIBL2 = 0.0002 
   DROUT =   1.06 
   PVAG =      1 
   PCLM =    0.2 
   APCLM =      0 
   BPCLM =  1e-07 
   PCLMG =      0 
   VASAT =    0.6 
   PCLMCV =  0.013 
   PCLMGCV =      0 
   VASATCV =    0.2 
   RGEXT =      0 ohm
   RGFIN =  0.001 ohm
   RSHS =      0 ohm
   RSHD =      0 ohm
   HEPI = 8.5e-09 m
   TSILI =  7e-09 m
   RHOC =  7e-13 ohm/m^2
   RHORSD =      1 ohm/m
   RHOEXT =      1 ohm/m
   CRATIO =    0.5 
   DELTAPRSD =      0 m
   SDTERM = 0 
   LSP = 2.8e-09 m
   LDG =  2e-09 m
   EPSRSP =    3.9 
   TGATE =  8e-09 m
   TMASK =      0 m
   ASILIEND =      0 m^2
   ARSDEND =      0 m^2
   PRSDEND =      0 m
   NSDE =  6e+25 m^-3
   RGEOA =      1 
   RGEOB =      0 m^-1
   RGEOC =      0 m^-1
   RGEOD =      0 m^-1
   RGEOE =      0 m^-1
   CGEOA =      1 
   CGEOB =      0 m^-1
   CGEOC =      0 m^-1
   CGEOD =      0 m^-1
   CGEOE =      1 
   AIGBINV = 0.0111 (Fs^2/g)^0.5m^-1
   BIGBINV =   0.03 (Fs^2/g)^0.5m^-1
   CIGBINV =  0.006 V^-1
   EIGBINV =    1.1 V
   NIGBINV =    1.2 
   AIGBACC = 0.0149 
   BIGBACC = 0.000949 
   CIGBACC =  0.075 
   NIGBACC =      3 
   AIGC = 0.0136 (Fs^2/g)^0.5m^-1
   BIGC = 0.00171 (Fs^2/g)^0.5m^-1V^-1
   CIGC =  0.075 V^-1
   NIGC =      1 
   DLCIGS =      0 m
   AIGS = 0.0136 (Fs^2/g)^0.5m^-1
   BIGS = 0.00171 (Fs^2/g)^0.5m^-1V^-1
   CIGS =  0.075 V^-1
   DLCIGD =      0 m
   AIGD = 0.0136 (Fs^2/g)^0.5m^-1
   BIGD = 0.00171 (Fs^2/g)^0.5m^-1V^-1
   CIGD =  0.075 V^-1
   POXEDGE =      1 
   AGIDL = 5.729e-12 ohm^-1
   BGIDL =  3e+08 V/m
   EGIDL =    0.1 V
   AGISL = 5.729e-12 ohm^-1
   BGISL =  3e+08 V/m
   EGISL =    0.1 V
   ALPHA0 =      0 mV^-1
   ALPHA1 =      0 V^-1
   BETA0 =     30 V^-1
   ALPHAII =      0 
   BETAII0 =      0 V^-1
   BETAII1 =      0 
   BETAII2 =    0.1 V
   ESATII =  1e+07 V/m
   LII =  5e-10 V/m
   SII0 =    0.5 V^-1
   SII1 =    0.1 
   SII2 =      0 V
   SIID =      0 V
   EOTACC = 6.8e-10 m
   DELVFBACC =      0 V
   CFS = 2.56e-11 F/m
   CFD = 2.65e-11 F/m
   COVS = 2.5e-11 F/m
   COVD = 2.5e-11 F/m
   CGSO =      0 F/m
   CGDO =      0 F/m
   CGSL =      0 F/m
   CGDL =      0 F/m
   CKAPPAS =    0.6 V
   CKAPPAD =    0.6 V
   CGBO =      0 F/m
   CGBL =      0 F/m
   CKAPPAB =    0.6 V
   CSDESW =      0 F/m
   CJS = 0.0005 F/m^2
   CJD = 0.0005 F/m^2
   CJSWS =  5e-10 F/m
   CJSWD =  5e-10 F/m
   CJSWGS =      0 F/m
   CJSWGD =      0 F/m
   PBS =      1 V
   PBD =      1 V
   PBSWS =      1 V
   PBSWD =      1 V
   PBSWGS =      1 V
   PBSWGD =      1 V
   MJS, =    0.5 
   MJD =    0.5 
   MJSWS =   0.33 
   MJSWD =   0.33 
   MJSWGS =   0.33 
   MJSWGD =   0.33 
   SJS =      0 
   SJD =      0 
   SJSWS =      0 
   SJSWD =      0 
   SJSWGS =      0 
   SJSWGD =      0 
   MJS2 =  0.125 
   MJD2 =  0.125 
   MJSWS2 =   0.33 
   MJSWD2 =   0.33 
   MJSWGS2 =   0.33 
   MJSWGD2 =   0.33 
   JSS = 0.0001 A/m^2
   JSD = 0.0001 A/m^2
   JSWS =      0 A/m
   JSWD =      0 A/m
   JSWGS =      0 A/m
   JSWGD =      0 A/m
   NJS =      1 
   NJD =      1 
   IJTHSFWD =    0.1 A
   IJTHDFWD =    0.1 A
   IJTHSREV =    0.1 A
   IJTHDREV =    0.1 A
   BVS =     10 V
   BVD =     10 V
   XJBVS =      1 
   XJBVD =      1 
   JTSS =      0 A/m^2
   JTSD =      0 A/m^2
   JTSSWS =      0 A/m
   JTSSWD =      0 A/m
   JTSSWGS =      0 A/m
   JTSSWGD =      0 A/m
   JTWEFF =      0 m
   NJTS =     20 
   NJTSD =     20 
   NJTSSW =     20 
   NJTSSWD =     20 
   NJTSSWG =     20 
   NJTSSWGD =     20 
   VTSS =     10 V
   VTSD =     10 V
   VTSSWS =     10 V
   VTSSWD =     10 V
   VTSSWGS =     10 V
   VTSSWGD =     10 V
   LINTIGEN =      0 m
   NTGEN =      1 
   AIGEN =      0 m^-3V^-1
   BIGEN =      0 m^-3V^-3
   XRCRG1 =     12 
   XRCRG2 =      1 
   NSEG = 5 
   EF =      1 
   EM = 4.1e+07 V/m
   NOIA = 6.25e+39 eV^-1s^1-EFm^-3
   NOIB = 3.125e+24 eV^-1s^1-EFm^-1
   NOIC = 8.75e+07 eV^-1s^1-EFm
   NTNOI =      1 
   TNOM =  300.1 K
   TBGASUB = 0.000702 eV/K
   TBGBSUB =   1108 K
   KT1 =      0 V
   KT1L =      0 Vm
   IIT =   -0.5 
   TII =      0 
   TGIDL = -0.0003 K^-1
   IGT =    2.5 
   TCJ =      0 K^-1
   TCJSW =      0 K^-1
   TCJSWG =      0 K^-1
   TPB =      0 K^-1
   TPBSW =      0 K^-1
   TPBSWG =      0 K^-1
   XTIS =      3 
   XTID =      3 
   XTSS =   0.02 
   XTSD =   0.02 
   XTSSWS =   0.02 
   XTSSWD =   0.02 
   XTSSWGS =   0.02 
   XTSSWGD =   0.02 
   TNJTS =      0 
   TNJTSD =      0 
   TNJTSSW =      0 
   TNJTSSWD =      0 
   TNJTSSWG =      0 
   TNJTSSWGD =      0 
   RTH0 =   0.01 ohm
   CTH0 =  1e-05 F
   WTH0 =      0 m
   LNBODY =      0 
   NNBODY =      0 
   PNBODY =      0 
   LPHIG =      0 
   NPHIG =      0 
   PPHIG =      0 
   LNGATE =      0 
   NNGATE =      0 
   PNGATE =      0 
   LCIT =      0 
   NCIT =      0 
   PCIT =      0 
   LCDSC =      0 
   NCDSC =      0 
   PCDSC =      0 
   LCDSCD =      0 
   NCDSCD =      0 
   PCDSCD =      0 
   LCDSCDR =      0 
   NCDSCDR =      0 
   PCDSCDR =      0 
   LDVT0 =      0 
   NDVT0 =      0 
   PDVT0 =      0 
   LDVT1 =      0 
   NDVT1 =      0 
   PDVT1 =      0 
   LPHIN =      0 
   NPHIN =      0 
   PPHIN =      0 
   LETA0 =      0 
   NETA0 =      0 
   PETA0 =      0 
   LETA0R =      0 
   NETA0R =      0 
   PETA0R =      0 
   LDSUB =      0 
   NDSUB =      0 
   PDSUB =      0 
   LK1RSCE =      0 
   NK1RSCE =      0 
   PK1RSCE =      0 
   LLPE0 =      0 
   NLPE0 =      0 
   PLPE0 =      0 
   LQMFACTOR =      0 
   NQMFACTOR =      0 
   PQMFACTOR =      0 
   LQMTCENIV =      0 
   NQMTCENIV =      0 
   PQMTCENIV =      0 
   LQMTCENCV =      0 
   NQMTCENCV =      0 
   PQMTCENCV =      0 
   LVSAT =      0 
   NVSAT =      0 
   PVSAT =      0 
   LKSATIV =      0 
   NKSATIV =      0 
   PKSATIV =      0 
   LMEXP =      0 
   NMEXP =      0 
   PMEXP =      0 
   LPTWG =      0 
   NPTWG =      0 
   PPTWG =      0 
   LTHETASAT =      0 
   NTHETASAT =      0 
   PTHETASAT =      0 
   LU0 =      0 
   NU0 =      0 
   PU0 =      0 
   LUP =      0 
   NUP =      0 
   PUP =      0 
   LUA =      0 
   NUA =      0 
   PUA =      0 
   LEU =      0 
   NEU =      0 
   PEU =      0 
   LUD =      0 
   NUD =      0 
   PUD =      0 
   LUCS =      0 
   NUCS =      0 
   PUCS =      0 
   LPCLM =      0 
   NPCLM =      0 
   PPCLM =      0 
   LPCLMCV =      0 
   NPCLMCV =      0 
   PPCLMCV =      0 
   LRDSW =      0 
   NRDSW =      0 
   PRDSW =      0 
   LRSW =      0 
   NRSW =      0 
   PRSW =      0 
   LRDW =      0 
   NRDW =      0 
   PRDW =      0 
   LPRWG =      0 
   NPRWG =      0 
   PPRWG =      0 
   LWR =      0 
   NWR =      0 
   PWR =      0 
   LPDIBL1 =      0 
   NPDIBL1 =      0 
   PPDIBL1 =      0 
   LPDIBL2 =      0 
   NPDIBL2 =      0 
   PPDIBL2 =      0 
   LDROUT =      0 
   NDROUT =      0 
   PDROUT =      0 
   LPVAG =      0 
   NPVAG =      0 
   PPVAG =      0 
   LAIGBINV =      0 
   NAIGBINV =      0 
   PAIGBINV =      0 
   LBIGBINV =      0 
   NBIGBINV =      0 
   PBIGBINV =      0 
   LCIGBINV =      0 
   NCIGBINV =      0 
   PCIGBINV =      0 
   LEIGBINV =      0 
   NEIGBINV =      0 
   PEIGBINV =      0 
   LNIGBINV =      0 
   NNIGBINV =      0 
   PNIGBINV =      0 
   LAIGC =      0 
   NAIGC =      0 
   PAIGC =      0 
   LBIGC =      0 
   NBIGC =      0 
   PBIGC =      0 
   LCIGC =      0 
   NCIGC =      0 
   PCIGC =      0 
   LNIGC =      0 
   NNIGC =      0 
   PNIGC =      0 
   LAIGS =      0 
   NAIGS =      0 
   PAIGS =      0 
   LBIGS =      0 
   NBIGS =      0 
   PBIGS =      0 
   LCIGS =      0 
   NCIGS =      0 
   PCIGS =      0 
   LAIGD =      0 
   NAIGD =      0 
   PAIGD =      0 
   LBIGD =      0 
   NBIGD =      0 
   PBIGD =      0 
   LCIGD =      0 
   NCIGD =      0 
   PCIGD =      0 
   LPOXEDGE =      0 
   NPOXEDGE =      0 
   PPOXEDGE =      0 
   LAGIDL =      0 
   NAGIDL =      0 
   PAGIDL =      0 
   LBGIDL =      0 
   NBGIDL =      0 
   PBGIDL =      0 
   LEGIDL =      0 
   NEGIDL =      0 
   PEGIDL =      0 
   LAGISL =      0 
   NAGISL =      0 
   PAGISL =      0 
   LBGISL =      0 
   NBGISL =      0 
   PBGISL =      0 
   LEGISL =      0 
   NEGISL =      0 
   PEGISL =      0 
   LALPHA0 =      0 
   NALPHA0 =      0 
   PALPHA0 =      0 
   LALPHA1 =      0 
   NALPHA1 =      0 
   PALPHA1 =      0 
   LBETA0 =      0 
   NBETA0 =      0 
   PBETA0 =      0 
   LALPHAII =      0 
   NALPHAII =      0 
   PALPHAII =      0 
   LBETAII0 =      0 
   NBETAII0 =      0 
   PBETAII0 =      0 
   LBETAII1 =      0 
   NBETAII1 =      0 
   PBETAII1 =      0 
   LBETAII2 =      0 
   NBETAII2 =      0 
   PBETAII2 =      0 
   LESATII =      0 
   NESATII =      0 
   PESATII =      0 
   LLII =      0 
   NLII =      0 
   PLII =      0 
   LSII0 =      0 
   NSII0 =      0 
   PSII0 =      0 
   LSII1 =      0 
   NSII1 =      0 
   PSII1 =      0 
   LSII2 =      0 
   NSII2 =      0 
   PSII2 =      0 
   LSIID =      0 
   NSIID =      0 
   PSIID =      0 
   LCFS =      0 
   NCFS =      0 
   PCFS =      0 
   LCFD =      0 
   NCFD =      0 
   PCFD =      0 
   LCOVS =      0 
   NCOVS =      0 
   PCOVS =      0 
   LCOVD =      0 
   NCOVD =      0 
   PCOVD =      0 
   LCGSL =      0 
   NCGSL =      0 
   PCGSL =      0 
   LCGDL =      0 
   NCGDL =      0 
   PCGDL =      0 
   LCKAPPAS =      0 
   NCKAPPAS =      0 
   PCKAPPAS =      0 
   LCKAPPAD =      0 
   NCKAPPAD =      0 
   PCKAPPAD =      0 
   LCGBL =      0 
   NCGBL =      0 
   PCGBL =      0 
   LCKAPPAB =      0 
   NCKAPPAB =      0 
   PCKAPPAB =      0 
   LNTGEN =      0 
   NNTGEN =      0 
   PNTGEN =      0 
   LAIGEN =      0 
   NAIGEN =      0 
   PAIGEN =      0 
   LBIGEN =      0 
   NBIGEN =      0 
   PBIGEN =      0 
   LXRCRG1 =      0 
   NXRCRG1 =      0 
   PXRCRG1 =      0 
   LXRCRG2 =      0 
   NXRCRG2 =      0 
   PXRCRG2 =      0 
   LINTNOI =      0 
   NINTNOI =      0 
   PINTNOI =      0 
   LUTE =      0 
   NUTE =      0 
   PUTE =      0 
   LUTL =      0 
   NUTL =      0 
   PUTL =      0 
   LUA1 =      0 
   NUA1 =      0 
   PUA1 =      0 
   LUD1 =      0 
   NUD1 =      0 
   PUD1 =      0 
   LUCSTE =      0 
   NUCSTE =      0 
   PUCSTE =      0 
   LPTWGT =      0 
   NPTWGT =      0 
   PPTWGT =      0 
   LAT =      0 
   NAT =      0 
   PAT =      0 
   LSTTHETASAT =      0 
   NSTTHETASAT =      0 
   PSTTHETASAT =      0 
   LPRT =      0 
   NPRT =      0 
   PPRT =      0 
   LIIT =      0 
   NIIT =      0 
   PIIT =      0 
   LTII =      0 
   NTII =      0 
   PTII =      0 
   LTGIDL =      0 
   NTGIDL =      0 
   PTGIDL =      0 
   LIGT =      0 
   NIGT =      0 
   PIGT =      0 
   L = 1.4e-08 m
   D =  4e-08 m
   TFIN =  8e-09 m
   FPITCH = 2.8e-08 m
   NF = 1 
   NFIN = 1 
   NGCON = 1 
   ASEO =      0 m^2
   ADEO =      0 m^2
   PSEO =      0 m
   PDEO =      0 m
   ASEJ =      0 m^2
   ADEJ =      0 m^2
   PSEJ =      0 m
   PDEJ =      0 m
   CGSP =      0 F
   CGDP =      0 F
   CDSP =      0 F
   NRS =      0 
   NRD =      0 
   LRSD = 1.4e-08 m
   XL =      0 m
   DELVTRAND =      0 
   U0MULT =      1 
   IDS0MULT =      1 
   Lmin =  1e-08 m
   Lmax =  3e-08 m
   NFINmin = 0 
   NFINmax = 1 
   LVSAT1 =      0 
   NVSAT1 =      0 
   PVSAT1 =      0 
   LETAMOB =      0 
   NETAMOB =      0 
   PETAMOB =      0 
   LPCLMG =      0 
   NPCLMG =      0 
   PPCLMG =      0 
   LVASAT =      0 
   NVASAT =      0 
   PVASAT =      0 
   LAIGBACC =      0 
   NAIGBACC =      0 
   PAIGBACC =      0 
   LBIGBACC =      0 
   NBIGBACC =      0 
   PBIGBACC =      0 
   LCIGBACC =      0 
   NCIGBACC =      0 
   PCIGBACC =      0 
   LNIGBACC =      0 
   NNIGBACC =      0 
   PNIGBACC =      0 
 Model Name: nfet 
 BSIM-MG BULK Model(Level72)
   VERSION = 105.03  
   DEVTYPE = 1 
   BULKMOD = 1  
   COREMOD = 0 
   GEOMOD = 1 
   RDSMOD = 1 
   IGCMOD = 1 
   IGBMOD = 1 
   GIDLMOD = 0 
   IIMOD = 0 
   NQSMOD = 0 
   SHMOD = 0 
   RGATEMOD = 0 
   RGEOMOD = 1 
   CGEOMOD = 2 
   CAPMOD = 0 
   LINT =  6e-10 m
   LL =      0 m^(LLN+1)
   LLN =      1 
   DLC =      0 m
   DLBIN =      0 
   LLC =      0 m^(LLN+1)
   EOT = 6.8e-10 m
   TOXP = 1.2e-09 m
   EOTBOX = 1.4e-07 m
   HFIN = 2.1e-08 m
   FECH =      1 
   DELTAW =      0 m
   FECHCV =      1 
   DELTAWCV =      0 m
   NBODY = 2.5e+22 m^-3
   NSD =  3e+26 m^-3
   PHIG =  4.421 eV
   EPSROX =    3.9 
   EPSRSUB =   11.9 
   EASUB =   4.05 eV
   NI0SUB = 1.1e+16 m^-3
   BG0SUB =   1.12 eV
   NC0SUB = 2.86e+25 m^-3
   NGATE =      0 m^-3
   CIT = 1.3e-05 F/m^2
   CDSC =  0.032 F/m^2
   CDSCD =  0.007 F/m^2
   CDSCDR =  0.007 
   DVT0 =   0.01 
   DVT1 =   0.69 
   PHIN =   0.05 V
   ETA0 = 0.6778 
   ETA0R = 0.6778 
   DSUB =    0.9 
   K1RSCE =      0 V^1/2
   LPE0 =  5e-09 m
   DVTSHIFT =      0 
   QMFACTOR =      0 
   QMTCENIV =      0 
   QMTCENCV =      0 
   AQMTCEN =      0 
   BQMTCEN = 1.2e-08 
   ETAQM =   0.54 
   QM0 = 0.001143 
   PQM =   0.66 
   QM0ACC =  0.001 
   PQMACC =   0.66 
   VSAT = 1.32e+05 
   AVSAT =      0 
   BVSAT =  1e-07 
   VSAT1 = 1.32e+05 
   AVSAT1 =      0 
   BVSAT1 =  1e-07 
   DELTAVSAT =      1 
   KSATIV =    0.8 
   MEXP =      3 
   AMEXP =      0 
   BMEXP =      1 
   PTWG =      0 
   APTWG =      0 
   BPTWG =  1e-07 
   AT = -0.00156 
   TMEXP =      0 
   PTWGT =  0.004 
   U0 = 0.0568 
   ETAMOB =      2 
   UP =      0 
   LPA =      1 
   UA =    0.3 
   AUA =      0 
   BUA =  1e-07 
   EU =    1.8 
   AEU =      0 
   BEU =  1e-07 
   UD =      0 
   AUD =      0 
   BUD =  5e-08 
   UCS =      0 
   UTE =      0 
   UTL = -0.0015 
   UA1 = 0.001032 
   UD1 =      0 
   UCSTE = -0.00478 
   RDSWMIN =      0 
   RDSW =    100 
   ARDSW =      0 
   BRDSW =  1e-07 
   RSWMIN =      0 
   RSW =      0 
   ARSW =      0 
   BRSW =  1e-07 
   RDWMIN =      0 
   RDW =      0 
   ARDW =      0 
   BRDW =  1e-07 
   PRWG =      0 
   WR =      1 
   PRT =  0.001 
   PDIBL1 =    1.3 
   PDIBL2 = 0.0002 
   DROUT =   1.06 
   PVAG =      1 
   PCLM =    0.2 
   APCLM =      0 
   BPCLM =  1e-07 
   PCLMG =      0 
   VASAT =    0.6 
   PCLMCV =  0.013 
   PCLMGCV =      0 
   VASATCV =    0.2 
   RGEXT =      0 ohm
   RGFIN =  0.001 ohm
   RSHS =      0 ohm
   RSHD =      0 ohm
   HEPI = 8.5e-09 m
   TSILI =  7e-09 m
   RHOC =  6e-13 ohm/m^2
   RHORSD =      1 ohm/m
   RHOEXT =      1 ohm/m
   CRATIO =    0.5 
   DELTAPRSD =      0 m
   SDTERM = 0 
   LSP = 2.8e-09 m
   LDG =  2e-09 m
   EPSRSP =    3.9 
   TGATE =  8e-09 m
   TMASK =      0 m
   ASILIEND =      0 m^2
   ARSDEND =      0 m^2
   PRSDEND =      0 m
   NSDE =  6e+25 m^-3
   RGEOA =      1 
   RGEOB =      0 m^-1
   RGEOC =      0 m^-1
   RGEOD =      0 m^-1
   RGEOE =      0 m^-1
   CGEOA =      1 
   CGEOB =      0 m^-1
   CGEOC =      0 m^-1
   CGEOD =      0 m^-1
   CGEOE =      1 
   AIGBINV = 0.0111 (Fs^2/g)^0.5m^-1
   BIGBINV =   0.03 (Fs^2/g)^0.5m^-1
   CIGBINV =  0.006 V^-1
   EIGBINV =    1.1 V
   NIGBINV =    1.2 
   AIGBACC = 0.0149 
   BIGBACC = 0.000949 
   CIGBACC =  0.075 
   NIGBACC =      3 
   AIGC = 0.0136 (Fs^2/g)^0.5m^-1
   BIGC = 0.00171 (Fs^2/g)^0.5m^-1V^-1
   CIGC =  0.075 V^-1
   NIGC =      1 
   DLCIGS =      0 m
   AIGS = 0.0136 (Fs^2/g)^0.5m^-1
   BIGS = 0.00171 (Fs^2/g)^0.5m^-1V^-1
   CIGS =  0.075 V^-1
   DLCIGD =      0 m
   AIGD = 0.0136 (Fs^2/g)^0.5m^-1
   BIGD = 0.00171 (Fs^2/g)^0.5m^-1V^-1
   CIGD =  0.075 V^-1
   POXEDGE =      1 
   AGIDL = 5.729e-12 ohm^-1
   BGIDL =  3e+08 V/m
   EGIDL =    0.1 V
   AGISL = 5.729e-12 ohm^-1
   BGISL =  3e+08 V/m
   EGISL =    0.1 V
   ALPHA0 =      0 mV^-1
   ALPHA1 =      0 V^-1
   BETA0 =     30 V^-1
   ALPHAII =      0 
   BETAII0 =      0 V^-1
   BETAII1 =      0 
   BETAII2 =    0.1 V
   ESATII =  1e+07 V/m
   LII =  5e-10 V/m
   SII0 =    0.5 V^-1
   SII1 =    0.1 
   SII2 =      0 V
   SIID =      0 V
   EOTACC = 6.8e-10 m
   DELVFBACC =      0 V
   CFS = 2.56e-11 F/m
   CFD = 2.65e-11 F/m
   COVS = 2.5e-11 F/m
   COVD = 2.5e-11 F/m
   CGSO =      0 F/m
   CGDO =      0 F/m
   CGSL =      0 F/m
   CGDL =      0 F/m
   CKAPPAS =    0.6 V
   CKAPPAD =    0.6 V
   CGBO =      0 F/m
   CGBL =      0 F/m
   CKAPPAB =    0.6 V
   CSDESW =      0 F/m
   CJS = 0.0005 F/m^2
   CJD = 0.0005 F/m^2
   CJSWS =  5e-10 F/m
   CJSWD =  5e-10 F/m
   CJSWGS =      0 F/m
   CJSWGD =      0 F/m
   PBS =      1 V
   PBD =      1 V
   PBSWS =      1 V
   PBSWD =      1 V
   PBSWGS =      1 V
   PBSWGD =      1 V
   MJS, =    0.5 
   MJD =    0.5 
   MJSWS =   0.33 
   MJSWD =   0.33 
   MJSWGS =   0.33 
   MJSWGD =   0.33 
   SJS =      0 
   SJD =      0 
   SJSWS =      0 
   SJSWD =      0 
   SJSWGS =      0 
   SJSWGD =      0 
   MJS2 =  0.125 
   MJD2 =  0.125 
   MJSWS2 =   0.33 
   MJSWD2 =   0.33 
   MJSWGS2 =   0.33 
   MJSWGD2 =   0.33 
   JSS = 0.0001 A/m^2
   JSD = 0.0001 A/m^2
   JSWS =      0 A/m
   JSWD =      0 A/m
   JSWGS =      0 A/m
   JSWGD =      0 A/m
   NJS =      1 
   NJD =      1 
   IJTHSFWD =    0.1 A
   IJTHDFWD =    0.1 A
   IJTHSREV =    0.1 A
   IJTHDREV =    0.1 A
   BVS =     10 V
   BVD =     10 V
   XJBVS =      1 
   XJBVD =      1 
   JTSS =      0 A/m^2
   JTSD =      0 A/m^2
   JTSSWS =      0 A/m
   JTSSWD =      0 A/m
   JTSSWGS =      0 A/m
   JTSSWGD =      0 A/m
   JTWEFF =      0 m
   NJTS =     20 
   NJTSD =     20 
   NJTSSW =     20 
   NJTSSWD =     20 
   NJTSSWG =     20 
   NJTSSWGD =     20 
   VTSS =     10 V
   VTSD =     10 V
   VTSSWS =     10 V
   VTSSWD =     10 V
   VTSSWGS =     10 V
   VTSSWGD =     10 V
   LINTIGEN =      0 m
   NTGEN =      1 
   AIGEN =      0 m^-3V^-1
   BIGEN =      0 m^-3V^-3
   XRCRG1 =     12 
   XRCRG2 =      1 
   NSEG = 5 
   EF =      1 
   EM = 4.1e+07 V/m
   NOIA = 6.25e+39 eV^-1s^1-EFm^-3
   NOIB = 3.125e+24 eV^-1s^1-EFm^-1
   NOIC = 8.75e+07 eV^-1s^1-EFm
   NTNOI =      1 
   TNOM =  300.1 K
   TBGASUB = 0.000702 eV/K
   TBGBSUB =   1108 K
   KT1 =      0 V
   KT1L =      0 Vm
   IIT =   -0.5 
   TII =      0 
   TGIDL = -0.0003 K^-1
   IGT =    2.5 
   TCJ =      0 K^-1
   TCJSW =      0 K^-1
   TCJSWG =      0 K^-1
   TPB =      0 K^-1
   TPBSW =      0 K^-1
   TPBSWG =      0 K^-1
   XTIS =      3 
   XTID =      3 
   XTSS =   0.02 
   XTSD =   0.02 
   XTSSWS =   0.02 
   XTSSWD =   0.02 
   XTSSWGS =   0.02 
   XTSSWGD =   0.02 
   TNJTS =      0 
   TNJTSD =      0 
   TNJTSSW =      0 
   TNJTSSWD =      0 
   TNJTSSWG =      0 
   TNJTSSWGD =      0 
   RTH0 =   0.01 ohm
   CTH0 =  1e-05 F
   WTH0 =      0 m
   LNBODY =      0 
   NNBODY =      0 
   PNBODY =      0 
   LPHIG =      0 
   NPHIG =      0 
   PPHIG =      0 
   LNGATE =      0 
   NNGATE =      0 
   PNGATE =      0 
   LCIT =      0 
   NCIT =      0 
   PCIT =      0 
   LCDSC =      0 
   NCDSC =      0 
   PCDSC =      0 
   LCDSCD =      0 
   NCDSCD =      0 
   PCDSCD =      0 
   LCDSCDR =      0 
   NCDSCDR =      0 
   PCDSCDR =      0 
   LDVT0 =      0 
   NDVT0 =      0 
   PDVT0 =      0 
   LDVT1 =      0 
   NDVT1 =      0 
   PDVT1 =      0 
   LPHIN =      0 
   NPHIN =      0 
   PPHIN =      0 
   LETA0 =      0 
   NETA0 =      0 
   PETA0 =      0 
   LETA0R =      0 
   NETA0R =      0 
   PETA0R =      0 
   LDSUB =      0 
   NDSUB =      0 
   PDSUB =      0 
   LK1RSCE =      0 
   NK1RSCE =      0 
   PK1RSCE =      0 
   LLPE0 =      0 
   NLPE0 =      0 
   PLPE0 =      0 
   LQMFACTOR =      0 
   NQMFACTOR =      0 
   PQMFACTOR =      0 
   LQMTCENIV =      0 
   NQMTCENIV =      0 
   PQMTCENIV =      0 
   LQMTCENCV =      0 
   NQMTCENCV =      0 
   PQMTCENCV =      0 
   LVSAT =      0 
   NVSAT =      0 
   PVSAT =      0 
   LKSATIV =      0 
   NKSATIV =      0 
   PKSATIV =      0 
   LMEXP =      0 
   NMEXP =      0 
   PMEXP =      0 
   LPTWG =      0 
   NPTWG =      0 
   PPTWG =      0 
   LTHETASAT =      0 
   NTHETASAT =      0 
   PTHETASAT =      0 
   LU0 =      0 
   NU0 =      0 
   PU0 =      0 
   LUP =      0 
   NUP =      0 
   PUP =      0 
   LUA =      0 
   NUA =      0 
   PUA =      0 
   LEU =      0 
   NEU =      0 
   PEU =      0 
   LUD =      0 
   NUD =      0 
   PUD =      0 
   LUCS =      0 
   NUCS =      0 
   PUCS =      0 
   LPCLM =      0 
   NPCLM =      0 
   PPCLM =      0 
   LPCLMCV =      0 
   NPCLMCV =      0 
   PPCLMCV =      0 
   LRDSW =      0 
   NRDSW =      0 
   PRDSW =      0 
   LRSW =      0 
   NRSW =      0 
   PRSW =      0 
   LRDW =      0 
   NRDW =      0 
   PRDW =      0 
   LPRWG =      0 
   NPRWG =      0 
   PPRWG =      0 
   LWR =      0 
   NWR =      0 
   PWR =      0 
   LPDIBL1 =      0 
   NPDIBL1 =      0 
   PPDIBL1 =      0 
   LPDIBL2 =      0 
   NPDIBL2 =      0 
   PPDIBL2 =      0 
   LDROUT =      0 
   NDROUT =      0 
   PDROUT =      0 
   LPVAG =      0 
   NPVAG =      0 
   PPVAG =      0 
   LAIGBINV =      0 
   NAIGBINV =      0 
   PAIGBINV =      0 
   LBIGBINV =      0 
   NBIGBINV =      0 
   PBIGBINV =      0 
   LCIGBINV =      0 
   NCIGBINV =      0 
   PCIGBINV =      0 
   LEIGBINV =      0 
   NEIGBINV =      0 
   PEIGBINV =      0 
   LNIGBINV =      0 
   NNIGBINV =      0 
   PNIGBINV =      0 
   LAIGC =      0 
   NAIGC =      0 
   PAIGC =      0 
   LBIGC =      0 
   NBIGC =      0 
   PBIGC =      0 
   LCIGC =      0 
   NCIGC =      0 
   PCIGC =      0 
   LNIGC =      0 
   NNIGC =      0 
   PNIGC =      0 
   LAIGS =      0 
   NAIGS =      0 
   PAIGS =      0 
   LBIGS =      0 
   NBIGS =      0 
   PBIGS =      0 
   LCIGS =      0 
   NCIGS =      0 
   PCIGS =      0 
   LAIGD =      0 
   NAIGD =      0 
   PAIGD =      0 
   LBIGD =      0 
   NBIGD =      0 
   PBIGD =      0 
   LCIGD =      0 
   NCIGD =      0 
   PCIGD =      0 
   LPOXEDGE =      0 
   NPOXEDGE =      0 
   PPOXEDGE =      0 
   LAGIDL =      0 
   NAGIDL =      0 
   PAGIDL =      0 
   LBGIDL =      0 
   NBGIDL =      0 
   PBGIDL =      0 
   LEGIDL =      0 
   NEGIDL =      0 
   PEGIDL =      0 
   LAGISL =      0 
   NAGISL =      0 
   PAGISL =      0 
   LBGISL =      0 
   NBGISL =      0 
   PBGISL =      0 
   LEGISL =      0 
   NEGISL =      0 
   PEGISL =      0 
   LALPHA0 =      0 
   NALPHA0 =      0 
   PALPHA0 =      0 
   LALPHA1 =      0 
   NALPHA1 =      0 
   PALPHA1 =      0 
   LBETA0 =      0 
   NBETA0 =      0 
   PBETA0 =      0 
   LALPHAII =      0 
   NALPHAII =      0 
   PALPHAII =      0 
   LBETAII0 =      0 
   NBETAII0 =      0 
   PBETAII0 =      0 
   LBETAII1 =      0 
   NBETAII1 =      0 
   PBETAII1 =      0 
   LBETAII2 =      0 
   NBETAII2 =      0 
   PBETAII2 =      0 
   LESATII =      0 
   NESATII =      0 
   PESATII =      0 
   LLII =      0 
   NLII =      0 
   PLII =      0 
   LSII0 =      0 
   NSII0 =      0 
   PSII0 =      0 
   LSII1 =      0 
   NSII1 =      0 
   PSII1 =      0 
   LSII2 =      0 
   NSII2 =      0 
   PSII2 =      0 
   LSIID =      0 
   NSIID =      0 
   PSIID =      0 
   LCFS =      0 
   NCFS =      0 
   PCFS =      0 
   LCFD =      0 
   NCFD =      0 
   PCFD =      0 
   LCOVS =      0 
   NCOVS =      0 
   PCOVS =      0 
   LCOVD =      0 
   NCOVD =      0 
   PCOVD =      0 
   LCGSL =      0 
   NCGSL =      0 
   PCGSL =      0 
   LCGDL =      0 
   NCGDL =      0 
   PCGDL =      0 
   LCKAPPAS =      0 
   NCKAPPAS =      0 
   PCKAPPAS =      0 
   LCKAPPAD =      0 
   NCKAPPAD =      0 
   PCKAPPAD =      0 
   LCGBL =      0 
   NCGBL =      0 
   PCGBL =      0 
   LCKAPPAB =      0 
   NCKAPPAB =      0 
   PCKAPPAB =      0 
   LNTGEN =      0 
   NNTGEN =      0 
   PNTGEN =      0 
   LAIGEN =      0 
   NAIGEN =      0 
   PAIGEN =      0 
   LBIGEN =      0 
   NBIGEN =      0 
   PBIGEN =      0 
   LXRCRG1 =      0 
   NXRCRG1 =      0 
   PXRCRG1 =      0 
   LXRCRG2 =      0 
   NXRCRG2 =      0 
   PXRCRG2 =      0 
   LINTNOI =      0 
   NINTNOI =      0 
   PINTNOI =      0 
   LUTE =      0 
   NUTE =      0 
   PUTE =      0 
   LUTL =      0 
   NUTL =      0 
   PUTL =      0 
   LUA1 =      0 
   NUA1 =      0 
   PUA1 =      0 
   LUD1 =      0 
   NUD1 =      0 
   PUD1 =      0 
   LUCSTE =      0 
   NUCSTE =      0 
   PUCSTE =      0 
   LPTWGT =      0 
   NPTWGT =      0 
   PPTWGT =      0 
   LAT =      0 
   NAT =      0 
   PAT =      0 
   LSTTHETASAT =      0 
   NSTTHETASAT =      0 
   PSTTHETASAT =      0 
   LPRT =      0 
   NPRT =      0 
   PPRT =      0 
   LIIT =      0 
   NIIT =      0 
   PIIT =      0 
   LTII =      0 
   NTII =      0 
   PTII =      0 
   LTGIDL =      0 
   NTGIDL =      0 
   PTGIDL =      0 
   LIGT =      0 
   NIGT =      0 
   PIGT =      0 
   L = 1.4e-08 m
   D =  4e-08 m
   TFIN =  8e-09 m
   FPITCH = 2.8e-08 m
   NF = 1 
   NFIN = 1 
   NGCON = 1 
   ASEO =      0 m^2
   ADEO =      0 m^2
   PSEO =      0 m
   PDEO =      0 m
   ASEJ =      0 m^2
   ADEJ =      0 m^2
   PSEJ =      0 m
   PDEJ =      0 m
   CGSP =      0 F
   CGDP =      0 F
   CDSP =      0 F
   NRS =      0 
   NRD =      0 
   LRSD = 1.4e-08 m
   XL =      0 m
   DELVTRAND =      0 
   U0MULT =      1 
   IDS0MULT =      1 
   Lmin =  1e-08 m
   Lmax =  3e-08 m
   NFINmin = 0 
   NFINmax = 1 
   LVSAT1 =      0 
   NVSAT1 =      0 
   PVSAT1 =      0 
   LETAMOB =      0 
   NETAMOB =      0 
   PETAMOB =      0 
   LPCLMG =      0 
   NPCLMG =      0 
   PPCLMG =      0 
   LVASAT =      0 
   NVASAT =      0 
   PVASAT =      0 
   LAIGBACC =      0 
   NAIGBACC =      0 
   PAIGBACC =      0 
   LBIGBACC =      0 
   NBIGBACC =      0 
   PBIGBACC =      0 
   LCIGBACC =      0 
   NCIGBACC =      0 
   PCIGBACC =      0 
   LNIGBACC =      0 
   NNIGBACC =      0 
   PNIGBACC =      0 
 Model Name: pfet 
 BSIM-MG BULK Model(Level72)
   VERSION = 105.03  
   DEVTYPE = -1 
   BULKMOD = 1  
   COREMOD = 0 
   GEOMOD = 1 
   RDSMOD = 1 
   IGCMOD = 1 
   IGBMOD = 1 
   GIDLMOD = 0 
   IIMOD = 0 
   NQSMOD = 0 
   SHMOD = 0 
   RGATEMOD = 0 
   RGEOMOD = 1 
   CGEOMOD = 2 
   CAPMOD = 0 
   LINT =  6e-10 m
   LL =      0 m^(LLN+1)
   LLN =      1 
   DLC =      0 m
   DLBIN =      0 
   LLC =      0 m^(LLN+1)
   EOT = 6.8e-10 m
   TOXP = 1.2e-09 m
   EOTBOX = 1.4e-07 m
   HFIN = 2.1e-08 m
   FECH =      1 
   DELTAW =      0 m
   FECHCV =      1 
   DELTAWCV =      0 m
   NBODY = 2.5e+22 m^-3
   NSD =  3e+26 m^-3
   PHIG =  4.751 eV
   EPSROX =    3.9 
   EPSRSUB =   11.9 
   EASUB =   4.05 eV
   NI0SUB = 1.1e+16 m^-3
   BG0SUB =   1.12 eV
   NC0SUB = 2.86e+25 m^-3
   NGATE =      0 m^-3
   CIT = 1.3e-05 F/m^2
   CDSC =  0.032 F/m^2
   CDSCD =  0.007 F/m^2
   CDSCDR =  0.007 
   DVT0 =   0.01 
   DVT1 =   0.69 
   PHIN =   0.05 V
   ETA0 =   0.93 
   ETA0R =   0.93 
   DSUB =    0.9 
   K1RSCE =      0 V^1/2
   LPE0 =  5e-09 m
   DVTSHIFT =      0 
   QMFACTOR =      0 
   QMTCENIV =      0 
   QMTCENCV =      0 
   AQMTCEN =      0 
   BQMTCEN = 1.2e-08 
   ETAQM =   0.54 
   QM0 = 0.001143 
   PQM =   0.66 
   QM0ACC =  0.001 
   PQMACC =   0.66 
   VSAT = 1.29e+05 
   AVSAT =      0 
   BVSAT =  1e-07 
   VSAT1 = 1.29e+05 
   AVSAT1 =      0 
   BVSAT1 =  1e-07 
   DELTAVSAT =      1 
   KSATIV =    0.8 
   MEXP =      3 
   AMEXP =      0 
   BMEXP =      1 
   PTWG =      0 
   APTWG =      0 
   BPTWG =  1e-07 
   AT = -0.00156 
   TMEXP =      0 
   PTWGT =  0.004 
   U0 = 0.0376 
   ETAMOB =      2 
   UP =      0 
   LPA =      1 
   UA =    0.3 
   AUA =      0 
   BUA =  1e-07 
   EU =    1.8 
   AEU =      0 
   BEU =  1e-07 
   UD =      0 
   AUD =      0 
   BUD =  5e-08 
   UCS =      0 
   UTE =      0 
   UTL = -0.0015 
   UA1 = 0.001032 
   UD1 =      0 
   UCSTE = -0.00478 
   RDSWMIN =      0 
   RDSW =    100 
   ARDSW =      0 
   BRDSW =  1e-07 
   RSWMIN =      0 
   RSW =      0 
   ARSW =      0 
   BRSW =  1e-07 
   RDWMIN =      0 
   RDW =      0 
   ARDW =      0 
   BRDW =  1e-07 
   PRWG =      0 
   WR =      1 
   PRT =  0.001 
   PDIBL1 =    1.3 
   PDIBL2 = 0.0002 
   DROUT =   1.06 
   PVAG =      1 
   PCLM =    0.2 
   APCLM =      0 
   BPCLM =  1e-07 
   PCLMG =      0 
   VASAT =    0.6 
   PCLMCV =  0.013 
   PCLMGCV =      0 
   VASATCV =    0.2 
   RGEXT =      0 ohm
   RGFIN =  0.001 ohm
   RSHS =      0 ohm
   RSHD =      0 ohm
   HEPI = 8.5e-09 m
   TSILI =  7e-09 m
   RHOC =  7e-13 ohm/m^2
   RHORSD =      1 ohm/m
   RHOEXT =      1 ohm/m
   CRATIO =    0.5 
   DELTAPRSD =      0 m
   SDTERM = 0 
   LSP = 2.8e-09 m
   LDG =  2e-09 m
   EPSRSP =    3.9 
   TGATE =  8e-09 m
   TMASK =      0 m
   ASILIEND =      0 m^2
   ARSDEND =      0 m^2
   PRSDEND =      0 m
   NSDE =  6e+25 m^-3
   RGEOA =      1 
   RGEOB =      0 m^-1
   RGEOC =      0 m^-1
   RGEOD =      0 m^-1
   RGEOE =      0 m^-1
   CGEOA =      1 
   CGEOB =      0 m^-1
   CGEOC =      0 m^-1
   CGEOD =      0 m^-1
   CGEOE =      1 
   AIGBINV = 0.0111 (Fs^2/g)^0.5m^-1
   BIGBINV =   0.03 (Fs^2/g)^0.5m^-1
   CIGBINV =  0.006 V^-1
   EIGBINV =    1.1 V
   NIGBINV =    1.2 
   AIGBACC = 0.0149 
   BIGBACC = 0.000949 
   CIGBACC =  0.075 
   NIGBACC =      3 
   AIGC = 0.0136 (Fs^2/g)^0.5m^-1
   BIGC = 0.00171 (Fs^2/g)^0.5m^-1V^-1
   CIGC =  0.075 V^-1
   NIGC =      1 
   DLCIGS =      0 m
   AIGS = 0.0136 (Fs^2/g)^0.5m^-1
   BIGS = 0.00171 (Fs^2/g)^0.5m^-1V^-1
   CIGS =  0.075 V^-1
   DLCIGD =      0 m
   AIGD = 0.0136 (Fs^2/g)^0.5m^-1
   BIGD = 0.00171 (Fs^2/g)^0.5m^-1V^-1
   CIGD =  0.075 V^-1
   POXEDGE =      1 
   AGIDL = 5.729e-12 ohm^-1
   BGIDL =  3e+08 V/m
   EGIDL =    0.1 V
   AGISL = 5.729e-12 ohm^-1
   BGISL =  3e+08 V/m
   EGISL =    0.1 V
   ALPHA0 =      0 mV^-1
   ALPHA1 =      0 V^-1
   BETA0 =     30 V^-1
   ALPHAII =      0 
   BETAII0 =      0 V^-1
   BETAII1 =      0 
   BETAII2 =    0.1 V
   ESATII =  1e+07 V/m
   LII =  5e-10 V/m
   SII0 =    0.5 V^-1
   SII1 =    0.1 
   SII2 =      0 V
   SIID =      0 V
   EOTACC = 6.8e-10 m
   DELVFBACC =      0 V
   CFS = 2.56e-11 F/m
   CFD = 2.65e-11 F/m
   COVS = 2.5e-11 F/m
   COVD = 2.5e-11 F/m
   CGSO =      0 F/m
   CGDO =      0 F/m
   CGSL =      0 F/m
   CGDL =      0 F/m
   CKAPPAS =    0.6 V
   CKAPPAD =    0.6 V
   CGBO =      0 F/m
   CGBL =      0 F/m
   CKAPPAB =    0.6 V
   CSDESW =      0 F/m
   CJS = 0.0005 F/m^2
   CJD = 0.0005 F/m^2
   CJSWS =  5e-10 F/m
   CJSWD =  5e-10 F/m
   CJSWGS =      0 F/m
   CJSWGD =      0 F/m
   PBS =      1 V
   PBD =      1 V
   PBSWS =      1 V
   PBSWD =      1 V
   PBSWGS =      1 V
   PBSWGD =      1 V
   MJS, =    0.5 
   MJD =    0.5 
   MJSWS =   0.33 
   MJSWD =   0.33 
   MJSWGS =   0.33 
   MJSWGD =   0.33 
   SJS =      0 
   SJD =      0 
   SJSWS =      0 
   SJSWD =      0 
   SJSWGS =      0 
   SJSWGD =      0 
   MJS2 =  0.125 
   MJD2 =  0.125 
   MJSWS2 =   0.33 
   MJSWD2 =   0.33 
   MJSWGS2 =   0.33 
   MJSWGD2 =   0.33 
   JSS = 0.0001 A/m^2
   JSD = 0.0001 A/m^2
   JSWS =      0 A/m
   JSWD =      0 A/m
   JSWGS =      0 A/m
   JSWGD =      0 A/m
   NJS =      1 
   NJD =      1 
   IJTHSFWD =    0.1 A
   IJTHDFWD =    0.1 A
   IJTHSREV =    0.1 A
   IJTHDREV =    0.1 A
   BVS =     10 V
   BVD =     10 V
   XJBVS =      1 
   XJBVD =      1 
   JTSS =      0 A/m^2
   JTSD =      0 A/m^2
   JTSSWS =      0 A/m
   JTSSWD =      0 A/m
   JTSSWGS =      0 A/m
   JTSSWGD =      0 A/m
   JTWEFF =      0 m
   NJTS =     20 
   NJTSD =     20 
   NJTSSW =     20 
   NJTSSWD =     20 
   NJTSSWG =     20 
   NJTSSWGD =     20 
   VTSS =     10 V
   VTSD =     10 V
   VTSSWS =     10 V
   VTSSWD =     10 V
   VTSSWGS =     10 V
   VTSSWGD =     10 V
   LINTIGEN =      0 m
   NTGEN =      1 
   AIGEN =      0 m^-3V^-1
   BIGEN =      0 m^-3V^-3
   XRCRG1 =     12 
   XRCRG2 =      1 
   NSEG = 5 
   EF =      1 
   EM = 4.1e+07 V/m
   NOIA = 6.25e+39 eV^-1s^1-EFm^-3
   NOIB = 3.125e+24 eV^-1s^1-EFm^-1
   NOIC = 8.75e+07 eV^-1s^1-EFm
   NTNOI =      1 
   TNOM =  300.1 K
   TBGASUB = 0.000702 eV/K
   TBGBSUB =   1108 K
   KT1 =      0 V
   KT1L =      0 Vm
   IIT =   -0.5 
   TII =      0 
   TGIDL = -0.0003 K^-1
   IGT =    2.5 
   TCJ =      0 K^-1
   TCJSW =      0 K^-1
   TCJSWG =      0 K^-1
   TPB =      0 K^-1
   TPBSW =      0 K^-1
   TPBSWG =      0 K^-1
   XTIS =      3 
   XTID =      3 
   XTSS =   0.02 
   XTSD =   0.02 
   XTSSWS =   0.02 
   XTSSWD =   0.02 
   XTSSWGS =   0.02 
   XTSSWGD =   0.02 
   TNJTS =      0 
   TNJTSD =      0 
   TNJTSSW =      0 
   TNJTSSWD =      0 
   TNJTSSWG =      0 
   TNJTSSWGD =      0 
   RTH0 =   0.01 ohm
   CTH0 =  1e-05 F
   WTH0 =      0 m
   LNBODY =      0 
   NNBODY =      0 
   PNBODY =      0 
   LPHIG =      0 
   NPHIG =      0 
   PPHIG =      0 
   LNGATE =      0 
   NNGATE =      0 
   PNGATE =      0 
   LCIT =      0 
   NCIT =      0 
   PCIT =      0 
   LCDSC =      0 
   NCDSC =      0 
   PCDSC =      0 
   LCDSCD =      0 
   NCDSCD =      0 
   PCDSCD =      0 
   LCDSCDR =      0 
   NCDSCDR =      0 
   PCDSCDR =      0 
   LDVT0 =      0 
   NDVT0 =      0 
   PDVT0 =      0 
   LDVT1 =      0 
   NDVT1 =      0 
   PDVT1 =      0 
   LPHIN =      0 
   NPHIN =      0 
   PPHIN =      0 
   LETA0 =      0 
   NETA0 =      0 
   PETA0 =      0 
   LETA0R =      0 
   NETA0R =      0 
   PETA0R =      0 
   LDSUB =      0 
   NDSUB =      0 
   PDSUB =      0 
   LK1RSCE =      0 
   NK1RSCE =      0 
   PK1RSCE =      0 
   LLPE0 =      0 
   NLPE0 =      0 
   PLPE0 =      0 
   LQMFACTOR =      0 
   NQMFACTOR =      0 
   PQMFACTOR =      0 
   LQMTCENIV =      0 
   NQMTCENIV =      0 
   PQMTCENIV =      0 
   LQMTCENCV =      0 
   NQMTCENCV =      0 
   PQMTCENCV =      0 
   LVSAT =      0 
   NVSAT =      0 
   PVSAT =      0 
   LKSATIV =      0 
   NKSATIV =      0 
   PKSATIV =      0 
   LMEXP =      0 
   NMEXP =      0 
   PMEXP =      0 
   LPTWG =      0 
   NPTWG =      0 
   PPTWG =      0 
   LTHETASAT =      0 
   NTHETASAT =      0 
   PTHETASAT =      0 
   LU0 =      0 
   NU0 =      0 
   PU0 =      0 
   LUP =      0 
   NUP =      0 
   PUP =      0 
   LUA =      0 
   NUA =      0 
   PUA =      0 
   LEU =      0 
   NEU =      0 
   PEU =      0 
   LUD =      0 
   NUD =      0 
   PUD =      0 
   LUCS =      0 
   NUCS =      0 
   PUCS =      0 
   LPCLM =      0 
   NPCLM =      0 
   PPCLM =      0 
   LPCLMCV =      0 
   NPCLMCV =      0 
   PPCLMCV =      0 
   LRDSW =      0 
   NRDSW =      0 
   PRDSW =      0 
   LRSW =      0 
   NRSW =      0 
   PRSW =      0 
   LRDW =      0 
   NRDW =      0 
   PRDW =      0 
   LPRWG =      0 
   NPRWG =      0 
   PPRWG =      0 
   LWR =      0 
   NWR =      0 
   PWR =      0 
   LPDIBL1 =      0 
   NPDIBL1 =      0 
   PPDIBL1 =      0 
   LPDIBL2 =      0 
   NPDIBL2 =      0 
   PPDIBL2 =      0 
   LDROUT =      0 
   NDROUT =      0 
   PDROUT =      0 
   LPVAG =      0 
   NPVAG =      0 
   PPVAG =      0 
   LAIGBINV =      0 
   NAIGBINV =      0 
   PAIGBINV =      0 
   LBIGBINV =      0 
   NBIGBINV =      0 
   PBIGBINV =      0 
   LCIGBINV =      0 
   NCIGBINV =      0 
   PCIGBINV =      0 
   LEIGBINV =      0 
   NEIGBINV =      0 
   PEIGBINV =      0 
   LNIGBINV =      0 
   NNIGBINV =      0 
   PNIGBINV =      0 
   LAIGC =      0 
   NAIGC =      0 
   PAIGC =      0 
   LBIGC =      0 
   NBIGC =      0 
   PBIGC =      0 
   LCIGC =      0 
   NCIGC =      0 
   PCIGC =      0 
   LNIGC =      0 
   NNIGC =      0 
   PNIGC =      0 
   LAIGS =      0 
   NAIGS =      0 
   PAIGS =      0 
   LBIGS =      0 
   NBIGS =      0 
   PBIGS =      0 
   LCIGS =      0 
   NCIGS =      0 
   PCIGS =      0 
   LAIGD =      0 
   NAIGD =      0 
   PAIGD =      0 
   LBIGD =      0 
   NBIGD =      0 
   PBIGD =      0 
   LCIGD =      0 
   NCIGD =      0 
   PCIGD =      0 
   LPOXEDGE =      0 
   NPOXEDGE =      0 
   PPOXEDGE =      0 
   LAGIDL =      0 
   NAGIDL =      0 
   PAGIDL =      0 
   LBGIDL =      0 
   NBGIDL =      0 
   PBGIDL =      0 
   LEGIDL =      0 
   NEGIDL =      0 
   PEGIDL =      0 
   LAGISL =      0 
   NAGISL =      0 
   PAGISL =      0 
   LBGISL =      0 
   NBGISL =      0 
   PBGISL =      0 
   LEGISL =      0 
   NEGISL =      0 
   PEGISL =      0 
   LALPHA0 =      0 
   NALPHA0 =      0 
   PALPHA0 =      0 
   LALPHA1 =      0 
   NALPHA1 =      0 
   PALPHA1 =      0 
   LBETA0 =      0 
   NBETA0 =      0 
   PBETA0 =      0 
   LALPHAII =      0 
   NALPHAII =      0 
   PALPHAII =      0 
   LBETAII0 =      0 
   NBETAII0 =      0 
   PBETAII0 =      0 
   LBETAII1 =      0 
   NBETAII1 =      0 
   PBETAII1 =      0 
   LBETAII2 =      0 
   NBETAII2 =      0 
   PBETAII2 =      0 
   LESATII =      0 
   NESATII =      0 
   PESATII =      0 
   LLII =      0 
   NLII =      0 
   PLII =      0 
   LSII0 =      0 
   NSII0 =      0 
   PSII0 =      0 
   LSII1 =      0 
   NSII1 =      0 
   PSII1 =      0 
   LSII2 =      0 
   NSII2 =      0 
   PSII2 =      0 
   LSIID =      0 
   NSIID =      0 
   PSIID =      0 
   LCFS =      0 
   NCFS =      0 
   PCFS =      0 
   LCFD =      0 
   NCFD =      0 
   PCFD =      0 
   LCOVS =      0 
   NCOVS =      0 
   PCOVS =      0 
   LCOVD =      0 
   NCOVD =      0 
   PCOVD =      0 
   LCGSL =      0 
   NCGSL =      0 
   PCGSL =      0 
   LCGDL =      0 
   NCGDL =      0 
   PCGDL =      0 
   LCKAPPAS =      0 
   NCKAPPAS =      0 
   PCKAPPAS =      0 
   LCKAPPAD =      0 
   NCKAPPAD =      0 
   PCKAPPAD =      0 
   LCGBL =      0 
   NCGBL =      0 
   PCGBL =      0 
   LCKAPPAB =      0 
   NCKAPPAB =      0 
   PCKAPPAB =      0 
   LNTGEN =      0 
   NNTGEN =      0 
   PNTGEN =      0 
   LAIGEN =      0 
   NAIGEN =      0 
   PAIGEN =      0 
   LBIGEN =      0 
   NBIGEN =      0 
   PBIGEN =      0 
   LXRCRG1 =      0 
   NXRCRG1 =      0 
   PXRCRG1 =      0 
   LXRCRG2 =      0 
   NXRCRG2 =      0 
   PXRCRG2 =      0 
   LINTNOI =      0 
   NINTNOI =      0 
   PINTNOI =      0 
   LUTE =      0 
   NUTE =      0 
   PUTE =      0 
   LUTL =      0 
   NUTL =      0 
   PUTL =      0 
   LUA1 =      0 
   NUA1 =      0 
   PUA1 =      0 
   LUD1 =      0 
   NUD1 =      0 
   PUD1 =      0 
   LUCSTE =      0 
   NUCSTE =      0 
   PUCSTE =      0 
   LPTWGT =      0 
   NPTWGT =      0 
   PPTWGT =      0 
   LAT =      0 
   NAT =      0 
   PAT =      0 
   LSTTHETASAT =      0 
   NSTTHETASAT =      0 
   PSTTHETASAT =      0 
   LPRT =      0 
   NPRT =      0 
   PPRT =      0 
   LIIT =      0 
   NIIT =      0 
   PIIT =      0 
   LTII =      0 
   NTII =      0 
   PTII =      0 
   LTGIDL =      0 
   NTGIDL =      0 
   PTGIDL =      0 
   LIGT =      0 
   NIGT =      0 
   PIGT =      0 
   L = 1.4e-08 m
   D =  4e-08 m
   TFIN =  8e-09 m
   FPITCH = 2.8e-08 m
   NF = 1 
   NFIN = 1 
   NGCON = 1 
   ASEO =      0 m^2
   ADEO =      0 m^2
   PSEO =      0 m
   PDEO =      0 m
   ASEJ =      0 m^2
   ADEJ =      0 m^2
   PSEJ =      0 m
   PDEJ =      0 m
   CGSP =      0 F
   CGDP =      0 F
   CDSP =      0 F
   NRS =      0 
   NRD =      0 
   LRSD = 1.4e-08 m
   XL =      0 m
   DELVTRAND =      0 
   U0MULT =      1 
   IDS0MULT =      1 
   Lmin =  1e-08 m
   Lmax =  3e-08 m
   NFINmin = 0 
   NFINmax = 1 
   LVSAT1 =      0 
   NVSAT1 =      0 
   PVSAT1 =      0 
   LETAMOB =      0 
   NETAMOB =      0 
   PETAMOB =      0 
   LPCLMG =      0 
   NPCLMG =      0 
   PPCLMG =      0 
   LVASAT =      0 
   NVASAT =      0 
   PVASAT =      0 
   LAIGBACC =      0 
   NAIGBACC =      0 
   PAIGBACC =      0 
   LBIGBACC =      0 
   NBIGBACC =      0 
   PBIGBACC =      0 
   LCIGBACC =      0 
   NCIGBACC =      0 
   PCIGBACC =      0 
   LNIGBACC =      0 
   NNIGBACC =      0 
   PNIGBACC =      0 
 Model Name: nfet 
 BSIM-MG BULK Model(Level72)
   VERSION = 105.03  
   DEVTYPE = 1 
   BULKMOD = 1  
   COREMOD = 0 
   GEOMOD = 1 
   RDSMOD = 1 
   IGCMOD = 1 
   IGBMOD = 1 
   GIDLMOD = 0 
   IIMOD = 0 
   NQSMOD = 0 
   SHMOD = 0 
   RGATEMOD = 0 
   RGEOMOD = 1 
   CGEOMOD = 2 
   CAPMOD = 0 
   LINT =  6e-10 m
   LL =      0 m^(LLN+1)
   LLN =      1 
   DLC =      0 m
   DLBIN =      0 
   LLC =      0 m^(LLN+1)
   EOT = 6.8e-10 m
   TOXP = 1.2e-09 m
   EOTBOX = 1.4e-07 m
   HFIN = 2.1e-08 m
   FECH =      1 
   DELTAW =      0 m
   FECHCV =      1 
   DELTAWCV =      0 m
   NBODY = 2.5e+22 m^-3
   NSD =  3e+26 m^-3
   PHIG =  4.421 eV
   EPSROX =    3.9 
   EPSRSUB =   11.9 
   EASUB =   4.05 eV
   NI0SUB = 1.1e+16 m^-3
   BG0SUB =   1.12 eV
   NC0SUB = 2.86e+25 m^-3
   NGATE =      0 m^-3
   CIT = 1.3e-05 F/m^2
   CDSC =  0.032 F/m^2
   CDSCD =  0.007 F/m^2
   CDSCDR =  0.007 
   DVT0 =   0.01 
   DVT1 =   0.69 
   PHIN =   0.05 V
   ETA0 = 0.6778 
   ETA0R = 0.6778 
   DSUB =    0.9 
   K1RSCE =      0 V^1/2
   LPE0 =  5e-09 m
   DVTSHIFT =      0 
   QMFACTOR =      0 
   QMTCENIV =      0 
   QMTCENCV =      0 
   AQMTCEN =      0 
   BQMTCEN = 1.2e-08 
   ETAQM =   0.54 
   QM0 = 0.001143 
   PQM =   0.66 
   QM0ACC =  0.001 
   PQMACC =   0.66 
   VSAT = 1.32e+05 
   AVSAT =      0 
   BVSAT =  1e-07 
   VSAT1 = 1.32e+05 
   AVSAT1 =      0 
   BVSAT1 =  1e-07 
   DELTAVSAT =      1 
   KSATIV =    0.8 
   MEXP =      3 
   AMEXP =      0 
   BMEXP =      1 
   PTWG =      0 
   APTWG =      0 
   BPTWG =  1e-07 
   AT = -0.00156 
   TMEXP =      0 
   PTWGT =  0.004 
   U0 = 0.0568 
   ETAMOB =      2 
   UP =      0 
   LPA =      1 
   UA =    0.3 
   AUA =      0 
   BUA =  1e-07 
   EU =    1.8 
   AEU =      0 
   BEU =  1e-07 
   UD =      0 
   AUD =      0 
   BUD =  5e-08 
   UCS =      0 
   UTE =      0 
   UTL = -0.0015 
   UA1 = 0.001032 
   UD1 =      0 
   UCSTE = -0.00478 
   RDSWMIN =      0 
   RDSW =    100 
   ARDSW =      0 
   BRDSW =  1e-07 
   RSWMIN =      0 
   RSW =      0 
   ARSW =      0 
   BRSW =  1e-07 
   RDWMIN =      0 
   RDW =      0 
   ARDW =      0 
   BRDW =  1e-07 
   PRWG =      0 
   WR =      1 
   PRT =  0.001 
   PDIBL1 =    1.3 
   PDIBL2 = 0.0002 
   DROUT =   1.06 
   PVAG =      1 
   PCLM =    0.2 
   APCLM =      0 
   BPCLM =  1e-07 
   PCLMG =      0 
   VASAT =    0.6 
   PCLMCV =  0.013 
   PCLMGCV =      0 
   VASATCV =    0.2 
   RGEXT =      0 ohm
   RGFIN =  0.001 ohm
   RSHS =      0 ohm
   RSHD =      0 ohm
   HEPI = 8.5e-09 m
   TSILI =  7e-09 m
   RHOC =  6e-13 ohm/m^2
   RHORSD =      1 ohm/m
   RHOEXT =      1 ohm/m
   CRATIO =    0.5 
   DELTAPRSD =      0 m
   SDTERM = 0 
   LSP = 2.8e-09 m
   LDG =  2e-09 m
   EPSRSP =    3.9 
   TGATE =  8e-09 m
   TMASK =      0 m
   ASILIEND =      0 m^2
   ARSDEND =      0 m^2
   PRSDEND =      0 m
   NSDE =  6e+25 m^-3
   RGEOA =      1 
   RGEOB =      0 m^-1
   RGEOC =      0 m^-1
   RGEOD =      0 m^-1
   RGEOE =      0 m^-1
   CGEOA =      1 
   CGEOB =      0 m^-1
   CGEOC =      0 m^-1
   CGEOD =      0 m^-1
   CGEOE =      1 
   AIGBINV = 0.0111 (Fs^2/g)^0.5m^-1
   BIGBINV =   0.03 (Fs^2/g)^0.5m^-1
   CIGBINV =  0.006 V^-1
   EIGBINV =    1.1 V
   NIGBINV =    1.2 
   AIGBACC = 0.0149 
   BIGBACC = 0.000949 
   CIGBACC =  0.075 
   NIGBACC =      3 
   AIGC = 0.0136 (Fs^2/g)^0.5m^-1
   BIGC = 0.00171 (Fs^2/g)^0.5m^-1V^-1
   CIGC =  0.075 V^-1
   NIGC =      1 
   DLCIGS =      0 m
   AIGS = 0.0136 (Fs^2/g)^0.5m^-1
   BIGS = 0.00171 (Fs^2/g)^0.5m^-1V^-1
   CIGS =  0.075 V^-1
   DLCIGD =      0 m
   AIGD = 0.0136 (Fs^2/g)^0.5m^-1
   BIGD = 0.00171 (Fs^2/g)^0.5m^-1V^-1
   CIGD =  0.075 V^-1
   POXEDGE =      1 
   AGIDL = 5.729e-12 ohm^-1
   BGIDL =  3e+08 V/m
   EGIDL =    0.1 V
   AGISL = 5.729e-12 ohm^-1
   BGISL =  3e+08 V/m
   EGISL =    0.1 V
   ALPHA0 =      0 mV^-1
   ALPHA1 =      0 V^-1
   BETA0 =     30 V^-1
   ALPHAII =      0 
   BETAII0 =      0 V^-1
   BETAII1 =      0 
   BETAII2 =    0.1 V
   ESATII =  1e+07 V/m
   LII =  5e-10 V/m
   SII0 =    0.5 V^-1
   SII1 =    0.1 
   SII2 =      0 V
   SIID =      0 V
   EOTACC = 6.8e-10 m
   DELVFBACC =      0 V
   CFS = 2.56e-11 F/m
   CFD = 2.65e-11 F/m
   COVS = 2.5e-11 F/m
   COVD = 2.5e-11 F/m
   CGSO =      0 F/m
   CGDO =      0 F/m
   CGSL =      0 F/m
   CGDL =      0 F/m
   CKAPPAS =    0.6 V
   CKAPPAD =    0.6 V
   CGBO =      0 F/m
   CGBL =      0 F/m
   CKAPPAB =    0.6 V
   CSDESW =      0 F/m
   CJS = 0.0005 F/m^2
   CJD = 0.0005 F/m^2
   CJSWS =  5e-10 F/m
   CJSWD =  5e-10 F/m
   CJSWGS =      0 F/m
   CJSWGD =      0 F/m
   PBS =      1 V
   PBD =      1 V
   PBSWS =      1 V
   PBSWD =      1 V
   PBSWGS =      1 V
   PBSWGD =      1 V
   MJS, =    0.5 
   MJD =    0.5 
   MJSWS =   0.33 
   MJSWD =   0.33 
   MJSWGS =   0.33 
   MJSWGD =   0.33 
   SJS =      0 
   SJD =      0 
   SJSWS =      0 
   SJSWD =      0 
   SJSWGS =      0 
   SJSWGD =      0 
   MJS2 =  0.125 
   MJD2 =  0.125 
   MJSWS2 =   0.33 
   MJSWD2 =   0.33 
   MJSWGS2 =   0.33 
   MJSWGD2 =   0.33 
   JSS = 0.0001 A/m^2
   JSD = 0.0001 A/m^2
   JSWS =      0 A/m
   JSWD =      0 A/m
   JSWGS =      0 A/m
   JSWGD =      0 A/m
   NJS =      1 
   NJD =      1 
   IJTHSFWD =    0.1 A
   IJTHDFWD =    0.1 A
   IJTHSREV =    0.1 A
   IJTHDREV =    0.1 A
   BVS =     10 V
   BVD =     10 V
   XJBVS =      1 
   XJBVD =      1 
   JTSS =      0 A/m^2
   JTSD =      0 A/m^2
   JTSSWS =      0 A/m
   JTSSWD =      0 A/m
   JTSSWGS =      0 A/m
   JTSSWGD =      0 A/m
   JTWEFF =      0 m
   NJTS =     20 
   NJTSD =     20 
   NJTSSW =     20 
   NJTSSWD =     20 
   NJTSSWG =     20 
   NJTSSWGD =     20 
   VTSS =     10 V
   VTSD =     10 V
   VTSSWS =     10 V
   VTSSWD =     10 V
   VTSSWGS =     10 V
   VTSSWGD =     10 V
   LINTIGEN =      0 m
   NTGEN =      1 
   AIGEN =      0 m^-3V^-1
   BIGEN =      0 m^-3V^-3
   XRCRG1 =     12 
   XRCRG2 =      1 
   NSEG = 5 
   EF =      1 
   EM = 4.1e+07 V/m
   NOIA = 6.25e+39 eV^-1s^1-EFm^-3
   NOIB = 3.125e+24 eV^-1s^1-EFm^-1
   NOIC = 8.75e+07 eV^-1s^1-EFm
   NTNOI =      1 
   TNOM =  300.1 K
   TBGASUB = 0.000702 eV/K
   TBGBSUB =   1108 K
   KT1 =      0 V
   KT1L =      0 Vm
   IIT =   -0.5 
   TII =      0 
   TGIDL = -0.0003 K^-1
   IGT =    2.5 
   TCJ =      0 K^-1
   TCJSW =      0 K^-1
   TCJSWG =      0 K^-1
   TPB =      0 K^-1
   TPBSW =      0 K^-1
   TPBSWG =      0 K^-1
   XTIS =      3 
   XTID =      3 
   XTSS =   0.02 
   XTSD =   0.02 
   XTSSWS =   0.02 
   XTSSWD =   0.02 
   XTSSWGS =   0.02 
   XTSSWGD =   0.02 
   TNJTS =      0 
   TNJTSD =      0 
   TNJTSSW =      0 
   TNJTSSWD =      0 
   TNJTSSWG =      0 
   TNJTSSWGD =      0 
   RTH0 =   0.01 ohm
   CTH0 =  1e-05 F
   WTH0 =      0 m
   LNBODY =      0 
   NNBODY =      0 
   PNBODY =      0 
   LPHIG =      0 
   NPHIG =      0 
   PPHIG =      0 
   LNGATE =      0 
   NNGATE =      0 
   PNGATE =      0 
   LCIT =      0 
   NCIT =      0 
   PCIT =      0 
   LCDSC =      0 
   NCDSC =      0 
   PCDSC =      0 
   LCDSCD =      0 
   NCDSCD =      0 
   PCDSCD =      0 
   LCDSCDR =      0 
   NCDSCDR =      0 
   PCDSCDR =      0 
   LDVT0 =      0 
   NDVT0 =      0 
   PDVT0 =      0 
   LDVT1 =      0 
   NDVT1 =      0 
   PDVT1 =      0 
   LPHIN =      0 
   NPHIN =      0 
   PPHIN =      0 
   LETA0 =      0 
   NETA0 =      0 
   PETA0 =      0 
   LETA0R =      0 
   NETA0R =      0 
   PETA0R =      0 
   LDSUB =      0 
   NDSUB =      0 
   PDSUB =      0 
   LK1RSCE =      0 
   NK1RSCE =      0 
   PK1RSCE =      0 
   LLPE0 =      0 
   NLPE0 =      0 
   PLPE0 =      0 
   LQMFACTOR =      0 
   NQMFACTOR =      0 
   PQMFACTOR =      0 
   LQMTCENIV =      0 
   NQMTCENIV =      0 
   PQMTCENIV =      0 
   LQMTCENCV =      0 
   NQMTCENCV =      0 
   PQMTCENCV =      0 
   LVSAT =      0 
   NVSAT =      0 
   PVSAT =      0 
   LKSATIV =      0 
   NKSATIV =      0 
   PKSATIV =      0 
   LMEXP =      0 
   NMEXP =      0 
   PMEXP =      0 
   LPTWG =      0 
   NPTWG =      0 
   PPTWG =      0 
   LTHETASAT =      0 
   NTHETASAT =      0 
   PTHETASAT =      0 
   LU0 =      0 
   NU0 =      0 
   PU0 =      0 
   LUP =      0 
   NUP =      0 
   PUP =      0 
   LUA =      0 
   NUA =      0 
   PUA =      0 
   LEU =      0 
   NEU =      0 
   PEU =      0 
   LUD =      0 
   NUD =      0 
   PUD =      0 
   LUCS =      0 
   NUCS =      0 
   PUCS =      0 
   LPCLM =      0 
   NPCLM =      0 
   PPCLM =      0 
   LPCLMCV =      0 
   NPCLMCV =      0 
   PPCLMCV =      0 
   LRDSW =      0 
   NRDSW =      0 
   PRDSW =      0 
   LRSW =      0 
   NRSW =      0 
   PRSW =      0 
   LRDW =      0 
   NRDW =      0 
   PRDW =      0 
   LPRWG =      0 
   NPRWG =      0 
   PPRWG =      0 
   LWR =      0 
   NWR =      0 
   PWR =      0 
   LPDIBL1 =      0 
   NPDIBL1 =      0 
   PPDIBL1 =      0 
   LPDIBL2 =      0 
   NPDIBL2 =      0 
   PPDIBL2 =      0 
   LDROUT =      0 
   NDROUT =      0 
   PDROUT =      0 
   LPVAG =      0 
   NPVAG =      0 
   PPVAG =      0 
   LAIGBINV =      0 
   NAIGBINV =      0 
   PAIGBINV =      0 
   LBIGBINV =      0 
   NBIGBINV =      0 
   PBIGBINV =      0 
   LCIGBINV =      0 
   NCIGBINV =      0 
   PCIGBINV =      0 
   LEIGBINV =      0 
   NEIGBINV =      0 
   PEIGBINV =      0 
   LNIGBINV =      0 
   NNIGBINV =      0 
   PNIGBINV =      0 
   LAIGC =      0 
   NAIGC =      0 
   PAIGC =      0 
   LBIGC =      0 
   NBIGC =      0 
   PBIGC =      0 
   LCIGC =      0 
   NCIGC =      0 
   PCIGC =      0 
   LNIGC =      0 
   NNIGC =      0 
   PNIGC =      0 
   LAIGS =      0 
   NAIGS =      0 
   PAIGS =      0 
   LBIGS =      0 
   NBIGS =      0 
   PBIGS =      0 
   LCIGS =      0 
   NCIGS =      0 
   PCIGS =      0 
   LAIGD =      0 
   NAIGD =      0 
   PAIGD =      0 
   LBIGD =      0 
   NBIGD =      0 
   PBIGD =      0 
   LCIGD =      0 
   NCIGD =      0 
   PCIGD =      0 
   LPOXEDGE =      0 
   NPOXEDGE =      0 
   PPOXEDGE =      0 
   LAGIDL =      0 
   NAGIDL =      0 
   PAGIDL =      0 
   LBGIDL =      0 
   NBGIDL =      0 
   PBGIDL =      0 
   LEGIDL =      0 
   NEGIDL =      0 
   PEGIDL =      0 
   LAGISL =      0 
   NAGISL =      0 
   PAGISL =      0 
   LBGISL =      0 
   NBGISL =      0 
   PBGISL =      0 
   LEGISL =      0 
   NEGISL =      0 
   PEGISL =      0 
   LALPHA0 =      0 
   NALPHA0 =      0 
   PALPHA0 =      0 
   LALPHA1 =      0 
   NALPHA1 =      0 
   PALPHA1 =      0 
   LBETA0 =      0 
   NBETA0 =      0 
   PBETA0 =      0 
   LALPHAII =      0 
   NALPHAII =      0 
   PALPHAII =      0 
   LBETAII0 =      0 
   NBETAII0 =      0 
   PBETAII0 =      0 
   LBETAII1 =      0 
   NBETAII1 =      0 
   PBETAII1 =      0 
   LBETAII2 =      0 
   NBETAII2 =      0 
   PBETAII2 =      0 
   LESATII =      0 
   NESATII =      0 
   PESATII =      0 
   LLII =      0 
   NLII =      0 
   PLII =      0 
   LSII0 =      0 
   NSII0 =      0 
   PSII0 =      0 
   LSII1 =      0 
   NSII1 =      0 
   PSII1 =      0 
   LSII2 =      0 
   NSII2 =      0 
   PSII2 =      0 
   LSIID =      0 
   NSIID =      0 
   PSIID =      0 
   LCFS =      0 
   NCFS =      0 
   PCFS =      0 
   LCFD =      0 
   NCFD =      0 
   PCFD =      0 
   LCOVS =      0 
   NCOVS =      0 
   PCOVS =      0 
   LCOVD =      0 
   NCOVD =      0 
   PCOVD =      0 
   LCGSL =      0 
   NCGSL =      0 
   PCGSL =      0 
   LCGDL =      0 
   NCGDL =      0 
   PCGDL =      0 
   LCKAPPAS =      0 
   NCKAPPAS =      0 
   PCKAPPAS =      0 
   LCKAPPAD =      0 
   NCKAPPAD =      0 
   PCKAPPAD =      0 
   LCGBL =      0 
   NCGBL =      0 
   PCGBL =      0 
   LCKAPPAB =      0 
   NCKAPPAB =      0 
   PCKAPPAB =      0 
   LNTGEN =      0 
   NNTGEN =      0 
   PNTGEN =      0 
   LAIGEN =      0 
   NAIGEN =      0 
   PAIGEN =      0 
   LBIGEN =      0 
   NBIGEN =      0 
   PBIGEN =      0 
   LXRCRG1 =      0 
   NXRCRG1 =      0 
   PXRCRG1 =      0 
   LXRCRG2 =      0 
   NXRCRG2 =      0 
   PXRCRG2 =      0 
   LINTNOI =      0 
   NINTNOI =      0 
   PINTNOI =      0 
   LUTE =      0 
   NUTE =      0 
   PUTE =      0 
   LUTL =      0 
   NUTL =      0 
   PUTL =      0 
   LUA1 =      0 
   NUA1 =      0 
   PUA1 =      0 
   LUD1 =      0 
   NUD1 =      0 
   PUD1 =      0 
   LUCSTE =      0 
   NUCSTE =      0 
   PUCSTE =      0 
   LPTWGT =      0 
   NPTWGT =      0 
   PPTWGT =      0 
   LAT =      0 
   NAT =      0 
   PAT =      0 
   LSTTHETASAT =      0 
   NSTTHETASAT =      0 
   PSTTHETASAT =      0 
   LPRT =      0 
   NPRT =      0 
   PPRT =      0 
   LIIT =      0 
   NIIT =      0 
   PIIT =      0 
   LTII =      0 
   NTII =      0 
   PTII =      0 
   LTGIDL =      0 
   NTGIDL =      0 
   PTGIDL =      0 
   LIGT =      0 
   NIGT =      0 
   PIGT =      0 
   L = 1.4e-08 m
   D =  4e-08 m
   TFIN =  8e-09 m
   FPITCH = 2.8e-08 m
   NF = 1 
   NFIN = 1 
   NGCON = 1 
   ASEO =      0 m^2
   ADEO =      0 m^2
   PSEO =      0 m
   PDEO =      0 m
   ASEJ =      0 m^2
   ADEJ =      0 m^2
   PSEJ =      0 m
   PDEJ =      0 m
   CGSP =      0 F
   CGDP =      0 F
   CDSP =      0 F
   NRS =      0 
   NRD =      0 
   LRSD = 1.4e-08 m
   XL =      0 m
   DELVTRAND =      0 
   U0MULT =      1 
   IDS0MULT =      1 
   Lmin =  1e-08 m
   Lmax =  3e-08 m
   NFINmin = 0 
   NFINmax = 1 
   LVSAT1 =      0 
   NVSAT1 =      0 
   PVSAT1 =      0 
   LETAMOB =      0 
   NETAMOB =      0 
   PETAMOB =      0 
   LPCLMG =      0 
   NPCLMG =      0 
   PPCLMG =      0 
   LVASAT =      0 
   NVASAT =      0 
   PVASAT =      0 
   LAIGBACC =      0 
   NAIGBACC =      0 
   PAIGBACC =      0 
   LBIGBACC =      0 
   NBIGBACC =      0 
   PBIGBACC =      0 
   LCIGBACC =      0 
   NCIGBACC =      0 
   PCIGBACC =      0 
   LNIGBACC =      0 
   NNIGBACC =      0 
   PNIGBACC =      0 
  **info** (ptm10hp.sp:15) DC voltage reset to initial transient source value              in source        0:vin_0               new dc=  0.7500D+00
  
      
 **info** set option symb=1 internally to help for convergence.
 *****************************************************************
 ******  option summary
 ******
 runlvl  = 3         bypass  = 2         
  Opening plot unit= 15
 file=ptm10hp.pa0                                                              

1****** HSPICE -- F-2011.09-SP2 64-BIT (Feb 27 2012) linux ******               
 ******  
 $ netlist of inverter

  ******  operating point information tnom=  25.000 temp=  25.000 *****
 ***** operating point status is voltage   simulation time is     0.     
     node    =voltage       node    =voltage       node    =voltage

 + 0:inb_0   = 750.0000m  0:inb_1   = 750.0000m  0:outb_00 = 747.6199m
 + 0:outb_10 = 747.6199m  0:outin_00=   2.8356m  0:outin_01=   2.8356m
 + 0:outin_10= 747.6267m  0:outin_11= 747.6267m  0:outin_20=   2.9753m
 + 0:outin_21=   2.9753m  0:vdd     = 750.0000m

 ******  
 $ netlist of inverter

  ******  transient analysis tnom=  25.000 temp=  25.000 *****
 model_uut_peak_power00=  20.4207u    at=   2.0288n
             from=   0.         to=   4.0000n
 model_uut_avg_power00= 694.6291n  from=   0.          to=   4.0000n
 model_uut_peak_power10=  27.5003u    at=   1.0805n
             from=   0.         to=   4.0000n
 model_uut_avg_power10= 627.7462n  from=   0.          to=   4.0000n
 model_uut_peak_power01=  18.6436u    at=  30.1067p
             from=   0.         to=   4.0000n
 model_uut_avg_power01= 600.1985n  from=   0.          to=   4.0000n
 model_uut_peak_power11=  24.5226u    at=   2.0795n
             from=   0.         to=   4.0000n
 model_uut_avg_power11= 572.1401n  from=   0.          to=   4.0000n
 uut_peak_power=  85.6055u    at=  30.1067p
             from=   0.         to=   4.0000n
 uut_avg_power=   2.4947u  from=   0.          to=   4.0000n
 source_peak_power= 147.6271u    at=  30.1067p
             from=   0.         to=   4.0000n
 source_avg_power=   5.1754u  from=   0.          to=   4.0000n
 trf_delay_001=   2.1097p  targ=  30.5838p   trig=  28.4740p
 tfr_delay_001=   2.3841p  targ=   1.0800n   trig=   1.0776n
 trf_delay_002=   2.1946p  targ=   2.0306n   trig=   2.0284n
 tfr_delay_002=   2.2773p  targ=   3.0796n   trig=   3.0773n
 trf_delay_101=   1.6235p  targ=   1.0816n   trig=   1.0800n
 tfr_delay_101=   1.5993p  targ=  32.1831p   trig=  30.5838p
 trf_delay_102= 340.3012f  targ=   3.0799n   trig=   3.0796n
 tfr_delay_102=   1.8625p  targ=   2.0324n   trig=   2.0306n
 trf_delay_011=   2.1097p  targ=  30.5838p   trig=  28.4740p
 tfr_delay_011=   2.2986p  targ=   2.0800n   trig=   2.0777n
 trf_delay_111=   1.6660p  targ=   2.0816n   trig=   2.0800n
 tfr_delay_111=   1.5993p  targ=  32.1831p   trig=  30.5838p
x

        time    voltage      voltage    
                 outin_00     outin_10  
    0.            2.8356m    747.6267m  
   10.00000p     25.0892m    746.9897m  
   20.00000p     77.4524m    741.8133m  
   30.00000p    447.7386m    441.1487m  
   40.00000p    715.7873m      6.9163m  
   50.00000p    744.2857m      3.7417m  
   60.00000p    747.7412m      2.9857m  
   70.00000p    747.7801m      2.9549m  
   80.00000p    747.7635m      2.9677m  
   90.00000p    747.7484m      2.9794m  
  100.00000p    747.7548m      2.9745m  
  110.00000p    747.7611m      2.9697m  
  120.00000p    747.7675m      2.9649m  
  130.00000p    747.7739m      2.9600m  
  140.00000p    747.7803m      2.9552m  
  150.00000p    747.7775m      2.9573m  
  160.00000p    747.7747m      2.9594m  
  170.00000p    747.7719m      2.9615m  
  180.00000p    747.7691m      2.9636m  
  190.00000p    747.7663m      2.9657m  
  200.00000p    747.7635m      2.9678m  
  210.00000p    747.7607m      2.9700m  
  220.00000p    747.7579m      2.9721m  
  230.00000p    747.7551m      2.9742m  
  240.00000p    747.7523m      2.9763m  
  250.00000p    747.7495m      2.9784m  
  260.00000p    747.7508m      2.9774m  
  270.00000p    747.7523m      2.9763m  
  280.00000p    747.7538m      2.9751m  
  290.00000p    747.7553m      2.9740m  
  300.00000p    747.7569m      2.9729m  
  310.00000p    747.7584m      2.9717m  
  320.00000p    747.7599m      2.9706m  
  330.00000p    747.7614m      2.9694m  
  340.00000p    747.7629m      2.9683m  
  350.00000p    747.7644m      2.9672m  
  360.00000p    747.7659m      2.9660m  
  370.00000p    747.7675m      2.9649m  
  380.00000p    747.7690m      2.9637m  
  390.00000p    747.7705m      2.9626m  
  400.00000p    747.7720m      2.9615m  
  410.00000p    747.7735m      2.9603m  
  420.00000p    747.7750m      2.9592m  
  430.00000p    747.7765m      2.9581m  
  440.00000p    747.7781m      2.9569m  
  450.00000p    747.7796m      2.9558m  
  460.00000p    747.7782m      2.9568m  
  470.00000p    747.7767m      2.9579m  
  480.00000p    747.7752m      2.9590m  
  490.00000p    747.7737m      2.9602m  
  500.00000p    747.7722m      2.9613m  
  510.00000p    747.7707m      2.9624m  
  520.00000p    747.7692m      2.9635m  
  530.00000p    747.7678m      2.9646m  
  540.00000p    747.7663m      2.9658m  
  550.00000p    747.7648m      2.9669m  
  560.00000p    747.7633m      2.9680m  
  570.00000p    747.7618m      2.9691m  
  580.00000p    747.7603m      2.9702m  
  590.00000p    747.7588m      2.9714m  
  600.00000p    747.7573m      2.9725m  
  610.00000p    747.7558m      2.9736m  
  620.00000p    747.7543m      2.9747m  
  630.00000p    747.7528m      2.9758m  
  640.00000p    747.7513m      2.9769m  
  650.00000p    747.7498m      2.9781m  
  660.00000p    747.7512m      2.9771m  
  670.00000p    747.7527m      2.9760m  
  680.00000p    747.7541m      2.9749m  
  690.00000p    747.7556m      2.9738m  
  700.00000p    747.7571m      2.9727m  
  710.00000p    747.7586m      2.9716m  
  720.00000p    747.7600m      2.9705m  
  730.00000p    747.7615m      2.9694m  
  740.00000p    747.7630m      2.9683m  
  750.00000p    747.7644m      2.9672m  
  760.00000p    747.7659m      2.9661m  
  770.00000p    747.7674m      2.9650m  
  780.00000p    747.7688m      2.9639m  
  790.00000p    747.7703m      2.9628m  
  800.00000p    747.7718m      2.9617m  
  810.00000p    747.7733m      2.9606m  
  820.00000p    747.7747m      2.9595m  
  830.00000p    747.7762m      2.9584m  
  840.00000p    747.7777m      2.9573m  
  850.00000p    747.7791m      2.9562m  
  860.00000p    747.7778m      2.9572m  
  870.00000p    747.7764m      2.9582m  
  880.00000p    747.7749m      2.9593m  
  890.00000p    747.7734m      2.9604m  
  900.00000p    747.7720m      2.9615m  
  910.00000p    747.7705m      2.9626m  
  920.00000p    747.7691m      2.9637m  
  930.00000p    747.7676m      2.9647m  
  940.00000p    747.7662m      2.9658m  
  950.00000p    747.7647m      2.9669m  
  960.00000p    747.7633m      2.9680m  
  970.00000p    747.7618m      2.9691m  
  980.00000p    747.7604m      2.9702m  
  990.00000p    747.7589m      2.9712m  
    1.00000n    747.7575m      2.9723m  
    1.01000n    747.7560m      2.9734m  
    1.02000n    747.7546m      2.9745m  
    1.03000n    747.7531m      2.9756m  
    1.04000n    747.7517m      2.9766m  
    1.05000n    747.7502m      2.9777m  
    1.06000n    726.4240m      3.6793m  
    1.07000n    659.7568m     11.2565m  
    1.08000n    260.0389m    375.8348m  
    1.09000n     33.4268m    744.6718m  
    1.10000n      5.9375m    746.9161m  
    1.11000n      2.8311m    747.6374m  
    1.12000n      2.8372m    747.6234m  
    1.13000n      2.8315m    747.6437m  
    1.14000n      2.8349m    747.6290m  
    1.15000n      2.8382m    747.6143m  
    1.16000n      2.8401m    747.6057m  
    1.17000n      2.8390m    747.6109m  
    1.18000n      2.8379m    747.6161m  
    1.19000n      2.8368m    747.6213m  
    1.20000n      2.8357m    747.6265m  
    1.21000n      2.8346m    747.6317m  
    1.22000n      2.8335m    747.6369m  
    1.23000n      2.8324m    747.6421m  
    1.24000n      2.8313m    747.6473m  
    1.25000n      2.8314m    747.6467m  
    1.26000n      2.8319m    747.6442m  
    1.27000n      2.8325m    747.6417m  
    1.28000n      2.8330m    747.6393m  
    1.29000n      2.8335m    747.6368m  
    1.30000n      2.8340m    747.6343m  
    1.31000n      2.8345m    747.6318m  
    1.32000n      2.8350m    747.6293m  
    1.33000n      2.8355m    747.6268m  
    1.34000n      2.8360m    747.6243m  
    1.35000n      2.8366m    747.6219m  
    1.36000n      2.8371m    747.6194m  
    1.37000n      2.8376m    747.6169m  
    1.38000n      2.8381m    747.6144m  
    1.39000n      2.8386m    747.6119m  
    1.40000n      2.8391m    747.6094m  
    1.41000n      2.8396m    747.6069m  
    1.42000n      2.8399m    747.6058m  
    1.43000n      2.8395m    747.6079m  
    1.44000n      2.8390m    747.6100m  
    1.45000n      2.8386m    747.6122m  
    1.46000n      2.8381m    747.6143m  
    1.47000n      2.8377m    747.6165m  
    1.48000n      2.8373m    747.6186m  
    1.49000n      2.8368m    747.6208m  
    1.50000n      2.8364m    747.6229m  
    1.51000n      2.8360m    747.6250m  
    1.52000n      2.8355m    747.6272m  
    1.53000n      2.8351m    747.6293m  
    1.54000n      2.8347m    747.6315m  
    1.55000n      2.8342m    747.6336m  
    1.56000n      2.8338m    747.6357m  
    1.57000n      2.8334m    747.6379m  
    1.58000n      2.8329m    747.6400m  
    1.59000n      2.8325m    747.6422m  
    1.60000n      2.8320m    747.6443m  
    1.61000n      2.8316m    747.6464m  
    1.62000n      2.8314m    747.6474m  
    1.63000n      2.8318m    747.6453m  
    1.64000n      2.8323m    747.6431m  
    1.65000n      2.8327m    747.6410m  
    1.66000n      2.8331m    747.6389m  
    1.67000n      2.8335m    747.6368m  
    1.68000n      2.8340m    747.6347m  
    1.69000n      2.8344m    747.6326m  
    1.70000n      2.8348m    747.6305m  
    1.71000n      2.8352m    747.6284m  
    1.72000n      2.8357m    747.6263m  
    1.73000n      2.8361m    747.6241m  
    1.74000n      2.8365m    747.6220m  
    1.75000n      2.8369m    747.6199m  
    1.76000n      2.8373m    747.6178m  
    1.77000n      2.8378m    747.6157m  
    1.78000n      2.8382m    747.6136m  
    1.79000n      2.8386m    747.6115m  
    1.80000n      2.8390m    747.6094m  
    1.81000n      2.8395m    747.6072m  
    1.82000n      2.8396m    747.6064m  
    1.83000n      2.8392m    747.6087m  
    1.84000n      2.8387m    747.6109m  
    1.85000n      2.8383m    747.6132m  
    1.86000n      2.8378m    747.6155m  
    1.87000n      2.8374m    747.6178m  
    1.88000n      2.8369m    747.6200m  
    1.89000n      2.8365m    747.6223m  
    1.90000n      2.8360m    747.6246m  
    1.91000n      2.8356m    747.6269m  
    1.92000n      2.8351m    747.6292m  
    1.93000n      2.8347m    747.6314m  
    1.94000n      2.8342m    747.6337m  
    1.95000n      2.8338m    747.6360m  
    1.96000n      2.8333m    747.6383m  
    1.97000n      2.8329m    747.6406m  
    1.98000n      2.8324m    747.6428m  
    1.99000n      2.8320m    747.6451m  
    2.00000n      2.8315m    747.6474m  
    2.01000n     24.3422m    747.1916m  
    2.02000n     76.9907m    742.1700m  
    2.03000n    450.0532m    434.8617m  
    2.04000n    716.0981m      7.4050m  
    2.05000n    744.2045m      3.5565m  
    2.06000n    747.7519m      2.9916m  
    2.07000n    747.7689m      2.9581m  
    2.08000n    747.7646m      2.9670m  
    2.09000n    747.7646m      2.9670m  
    2.10000n    747.7646m      2.9670m  
    2.11000n    747.7646m      2.9670m  
    2.12000n    747.7646m      2.9670m  
    2.13000n    747.7646m      2.9670m  
    2.14000n    747.7646m      2.9670m  
    2.15000n    747.7646m      2.9670m  
    2.16000n    747.7646m      2.9670m  
    2.17000n    747.7646m      2.9670m  
    2.18000n    747.7646m      2.9670m  
    2.19000n    747.7646m      2.9670m  
    2.20000n    747.7646m      2.9670m  
    2.21000n    747.7646m      2.9670m  
    2.22000n    747.7646m      2.9670m  
    2.23000n    747.7646m      2.9670m  
    2.24000n    747.7646m      2.9670m  
    2.25000n    747.7646m      2.9670m  
    2.26000n    747.7646m      2.9670m  
    2.27000n    747.7646m      2.9670m  
    2.28000n    747.7646m      2.9670m  
    2.29000n    747.7646m      2.9670m  
    2.30000n    747.7646m      2.9670m  
    2.31000n    747.7646m      2.9670m  
    2.32000n    747.7646m      2.9670m  
    2.33000n    747.7646m      2.9670m  
    2.34000n    747.7646m      2.9670m  
    2.35000n    747.7646m      2.9670m  
    2.36000n    747.7646m      2.9670m  
    2.37000n    747.7646m      2.9670m  
    2.38000n    747.7646m      2.9670m  
    2.39000n    747.7646m      2.9670m  
    2.40000n    747.7646m      2.9670m  
    2.41000n    747.7646m      2.9670m  
    2.42000n    747.7646m      2.9670m  
    2.43000n    747.7646m      2.9670m  
    2.44000n    747.7646m      2.9670m  
    2.45000n    747.7646m      2.9670m  
    2.46000n    747.7646m      2.9670m  
    2.47000n    747.7646m      2.9670m  
    2.48000n    747.7646m      2.9670m  
    2.49000n    747.7646m      2.9670m  
    2.50000n    747.7646m      2.9670m  
    2.51000n    747.7646m      2.9670m  
    2.52000n    747.7646m      2.9670m  
    2.53000n    747.7646m      2.9670m  
    2.54000n    747.7646m      2.9670m  
    2.55000n    747.7646m      2.9670m  
    2.56000n    747.7646m      2.9670m  
    2.57000n    747.7646m      2.9670m  
    2.58000n    747.7646m      2.9670m  
    2.59000n    747.7646m      2.9670m  
    2.60000n    747.7646m      2.9670m  
    2.61000n    747.7646m      2.9670m  
    2.62000n    747.7646m      2.9670m  
    2.63000n    747.7646m      2.9670m  
    2.64000n    747.7646m      2.9670m  
    2.65000n    747.7646m      2.9670m  
    2.66000n    747.7646m      2.9670m  
    2.67000n    747.7646m      2.9670m  
    2.68000n    747.7646m      2.9670m  
    2.69000n    747.7646m      2.9670m  
    2.70000n    747.7646m      2.9670m  
    2.71000n    747.7646m      2.9670m  
    2.72000n    747.7646m      2.9670m  
    2.73000n    747.7646m      2.9670m  
    2.74000n    747.7646m      2.9670m  
    2.75000n    747.7646m      2.9670m  
    2.76000n    747.7646m      2.9670m  
    2.77000n    747.7646m      2.9670m  
    2.78000n    747.7646m      2.9670m  
    2.79000n    747.7646m      2.9670m  
    2.80000n    747.7646m      2.9670m  
    2.81000n    747.7646m      2.9670m  
    2.82000n    747.7646m      2.9670m  
    2.83000n    747.7646m      2.9670m  
    2.84000n    747.7646m      2.9670m  
    2.85000n    747.7646m      2.9670m  
    2.86000n    747.7646m      2.9670m  
    2.87000n    747.7646m      2.9670m  
    2.88000n    747.7646m      2.9670m  
    2.89000n    747.7646m      2.9670m  
    2.90000n    747.7646m      2.9670m  
    2.91000n    747.7646m      2.9670m  
    2.92000n    747.7646m      2.9670m  
    2.93000n    747.7646m      2.9670m  
    2.94000n    747.7646m      2.9670m  
    2.95000n    747.7646m      2.9670m  
    2.96000n    747.7646m      2.9670m  
    2.97000n    747.7646m      2.9670m  
    2.98000n    747.7646m      2.9670m  
    2.99000n    747.7646m      2.9670m  
    3.00000n    747.7646m      2.9670m  
    3.01000n    747.7646m      2.9670m  
    3.02000n    747.7646m      2.9670m  
    3.03000n    747.7646m      2.9670m  
    3.04000n    747.7646m      2.9670m  
    3.05000n    747.7646m      2.9670m  
    3.06000n    727.6888m      3.4527m  
    3.07000n    558.5816m     41.2818m  
    3.08000n    259.2793m    411.8276m  
    3.09000n     33.3711m    744.2828m  
    3.10000n      6.0538m    747.2073m  
    3.11000n      2.8446m    747.6304m  
    3.12000n      2.8313m    747.6253m  
    3.13000n      2.8440m    747.6287m  
    3.14000n      2.8423m    747.6283m  
    3.15000n      2.8386m    747.6275m  
    3.16000n      2.8349m    747.6266m  
    3.17000n      2.8311m    747.6257m  
    3.18000n      2.8274m    747.6248m  
    3.19000n      2.8269m    747.6247m  
    3.20000n      2.8285m    747.6251m  
    3.21000n      2.8300m    747.6254m  
    3.22000n      2.8315m    747.6258m  
    3.23000n      2.8331m    747.6261m  
    3.24000n      2.8346m    747.6265m  
    3.25000n      2.8361m    747.6268m  
    3.26000n      2.8377m    747.6272m  
    3.27000n      2.8392m    747.6275m  
    3.28000n      2.8407m    747.6279m  
    3.29000n      2.8423m    747.6282m  
    3.30000n      2.8438m    747.6286m  
    3.31000n      2.8449m    747.6288m  
    3.32000n      2.8439m    747.6286m  
    3.33000n      2.8430m    747.6284m  
    3.34000n      2.8421m    747.6282m  
    3.35000n      2.8411m    747.6280m  
    3.36000n      2.8402m    747.6278m  
    3.37000n      2.8392m    747.6275m  
    3.38000n      2.8383m    747.6273m  
    3.39000n      2.8373m    747.6271m  
    3.40000n      2.8364m    747.6269m  
    3.41000n      2.8355m    747.6267m  
    3.42000n      2.8345m    747.6265m  
    3.43000n      2.8336m    747.6263m  
    3.44000n      2.8326m    747.6261m  
    3.45000n      2.8317m    747.6258m  
    3.46000n      2.8308m    747.6256m  
    3.47000n      2.8298m    747.6254m  
    3.48000n      2.8289m    747.6252m  
    3.49000n      2.8279m    747.6250m  
    3.50000n      2.8270m    747.6248m  
    3.51000n      2.8264m    747.6246m  
    3.52000n      2.8273m    747.6249m  
    3.53000n      2.8283m    747.6251m  
    3.54000n      2.8292m    747.6253m  
    3.55000n      2.8301m    747.6255m  
    3.56000n      2.8311m    747.6257m  
    3.57000n      2.8320m    747.6259m  
    3.58000n      2.8329m    747.6261m  
    3.59000n      2.8339m    747.6263m  
    3.60000n      2.8348m    747.6265m  
    3.61000n      2.8357m    747.6267m  
    3.62000n      2.8367m    747.6269m  
    3.63000n      2.8376m    747.6272m  
    3.64000n      2.8385m    747.6274m  
    3.65000n      2.8394m    747.6276m  
    3.66000n      2.8404m    747.6278m  
    3.67000n      2.8413m    747.6280m  
    3.68000n      2.8422m    747.6282m  
    3.69000n      2.8432m    747.6284m  
    3.70000n      2.8441m    747.6286m  
    3.71000n      2.8447m    747.6287m  
    3.72000n      2.8438m    747.6285m  
    3.73000n      2.8429m    747.6283m  
    3.74000n      2.8419m    747.6281m  
    3.75000n      2.8410m    747.6279m  
    3.76000n      2.8401m    747.6277m  
    3.77000n      2.8392m    747.6275m  
    3.78000n      2.8382m    747.6273m  
    3.79000n      2.8373m    747.6271m  
    3.80000n      2.8364m    747.6269m  
    3.81000n      2.8355m    747.6267m  
    3.82000n      2.8345m    747.6265m  
    3.83000n      2.8336m    747.6263m  
    3.84000n      2.8327m    747.6261m  
    3.85000n      2.8318m    747.6259m  
    3.86000n      2.8309m    747.6257m  
    3.87000n      2.8299m    747.6255m  
    3.88000n      2.8290m    747.6253m  
    3.89000n      2.8281m    747.6251m  
    3.90000n      2.8272m    747.6249m  
    3.91000n      2.8268m    747.6248m  
    3.92000n      2.8288m    747.6252m  
    3.93000n      2.8307m    747.6256m  
    3.94000n      2.8327m    747.6261m  
    3.95000n      2.8347m    747.6265m  
    3.96000n      2.8367m    747.6269m  
    3.97000n      2.8386m    747.6274m  
    3.98000n      2.8406m    747.6278m  
    3.99000n      2.8426m    747.6282m  
    4.00000n      2.8446m    747.6287m  
y
x

        time    voltage      voltage    
                 outin_10     outin_20  
    0.          747.6267m      2.9753m  
   10.00000p    746.9897m      2.9808m  
   20.00000p    741.8133m      3.1715m  
   30.00000p    441.1487m    137.1230m  
   40.00000p      6.9163m    748.2352m  
   50.00000p      3.7417m    748.4919m  
   60.00000p      2.9857m    747.6170m  
   70.00000p      2.9549m    747.6243m  
   80.00000p      2.9677m    747.6192m  
   90.00000p      2.9794m    747.6145m  
  100.00000p      2.9745m    747.6168m  
  110.00000p      2.9697m    747.6192m  
  120.00000p      2.9649m    747.6215m  
  130.00000p      2.9600m    747.6238m  
  140.00000p      2.9552m    747.6261m  
  150.00000p      2.9573m    747.6250m  
  160.00000p      2.9594m    747.6240m  
  170.00000p      2.9615m    747.6229m  
  180.00000p      2.9636m    747.6218m  
  190.00000p      2.9657m    747.6207m  
  200.00000p      2.9678m    747.6196m  
  210.00000p      2.9700m    747.6185m  
[...]
    3.64000n      2.8356m    747.6267m  
    3.65000n      2.8356m    747.6267m  
    3.66000n      2.8356m    747.6267m  
    3.67000n      2.8356m    747.6267m  
    3.68000n      2.8356m    747.6267m  
    3.69000n      2.8356m    747.6267m  
    3.70000n      2.8356m    747.6267m  
    3.71000n      2.8356m    747.6267m  
    3.72000n      2.8356m    747.6267m  
    3.73000n      2.8356m    747.6267m  
    3.74000n      2.8356m    747.6267m  
    3.75000n      2.8356m    747.6267m  
    3.76000n      2.8356m    747.6267m  
    3.77000n      2.8356m    747.6267m  
    3.78000n      2.8356m    747.6267m  
    3.79000n      2.8356m    747.6267m  
    3.80000n      2.8356m    747.6267m  
    3.81000n      2.8356m    747.6267m  
    3.82000n      2.8356m    747.6267m  
    3.83000n      2.8356m    747.6267m  
    3.84000n      2.8356m    747.6267m  
    3.85000n      2.8356m    747.6267m  
    3.86000n      2.8356m    747.6267m  
    3.87000n      2.8356m    747.6267m  
    3.88000n      2.8356m    747.6267m  
    3.89000n      2.8356m    747.6267m  
    3.90000n      2.8356m    747.6267m  
    3.91000n      2.8356m    747.6267m  
    3.92000n      2.8356m    747.6267m  
    3.93000n      2.8356m    747.6267m  
    3.94000n      2.8356m    747.6267m  
    3.95000n      2.8356m    747.6267m  
    3.96000n      2.8356m    747.6267m  
    3.97000n      2.8356m    747.6267m  
    3.98000n      2.8356m    747.6267m  
    3.99000n      2.8356m    747.6267m  
    4.00000n      2.8356m    747.6267m  
y
x

        time    voltage      voltage    
                 outin_11     outin_21  
    0.          747.6267m      2.9753m  
   10.00000p    746.9897m      2.9808m  
   20.00000p    741.8133m      3.1715m  
   30.00000p    441.1487m    137.1230m  
   40.00000p      6.9163m    748.2352m  
   50.00000p      3.7417m    748.4919m  
   60.00000p      2.9857m    747.6170m  
   70.00000p      2.9549m    747.6243m  
   80.00000p      2.9677m    747.6192m  
   90.00000p      2.9794m    747.6145m  
  100.00000p      2.9745m    747.6168m  
  110.00000p      2.9697m    747.6192m  
  120.00000p      2.9649m    747.6215m  
  130.00000p      2.9600m    747.6238m  
  140.00000p      2.9552m    747.6261m  
  150.00000p      2.9573m    747.6250m  
  160.00000p      2.9594m    747.6240m  
  170.00000p      2.9615m    747.6229m  
  180.00000p      2.9636m    747.6218m  
  190.00000p      2.9657m    747.6207m  
  200.00000p      2.9678m    747.6196m  
  210.00000p      2.9700m    747.6185m  
  220.00000p      2.9721m    747.6174m  
  230.00000p      2.9742m    747.6163m  
  240.00000p      2.9763m    747.6152m  
  250.00000p      2.9784m    747.6141m  
  260.00000p      2.9774m    747.6146m  
  270.00000p      2.9763m    747.6152m  
  280.00000p      2.9751m    747.6158m  
  290.00000p      2.9740m    747.6165m  
  300.00000p      2.9729m    747.6171m  
  310.00000p      2.9717m    747.6177m  
  320.00000p      2.9706m    747.6183m  
  330.00000p      2.9694m    747.6189m  
  340.00000p      2.9683m    747.6195m  
  350.00000p      2.9672m    747.6201m  
  360.00000p      2.9660m    747.6208m  
  370.00000p      2.9649m    747.6214m  
  380.00000p      2.9637m    747.6220m  
  390.00000p      2.9626m    747.6226m  
  400.00000p      2.9615m    747.6232m  
  410.00000p      2.9603m    747.6238m  
  420.00000p      2.9592m    747.6244m  
  430.00000p      2.9581m    747.6251m  
  440.00000p      2.9569m    747.6257m  
  450.00000p      2.9558m    747.6263m  
  460.00000p      2.9568m    747.6257m  
  470.00000p      2.9579m    747.6251m  
  480.00000p      2.9590m    747.6245m  
  490.00000p      2.9602m    747.6239m  
  500.00000p      2.9613m    747.6232m  
  510.00000p      2.9624m    747.6226m  
  520.00000p      2.9635m    747.6220m  
  530.00000p      2.9646m    747.6214m  
  540.00000p      2.9658m    747.6208m  
  550.00000p      2.9669m    747.6201m  
  560.00000p      2.9680m    747.6195m  
  570.00000p      2.9691m    747.6189m  
  580.00000p      2.9702m    747.6183m  
  590.00000p      2.9714m    747.6177m  
  600.00000p      2.9725m    747.6170m  
  610.00000p      2.9736m    747.6164m  
  620.00000p      2.9747m    747.6158m  
  630.00000p      2.9758m    747.6152m  
  640.00000p      2.9769m    747.6146m  
  650.00000p      2.9781m    747.6139m  
  660.00000p      2.9771m    747.6145m  
  670.00000p      2.9760m    747.6151m  
  680.00000p      2.9749m    747.6158m  
  690.00000p      2.9738m    747.6164m  
  700.00000p      2.9727m    747.6170m  
  710.00000p      2.9716m    747.6176m  
  720.00000p      2.9705m    747.6183m  
  730.00000p      2.9694m    747.6189m  
  740.00000p      2.9683m    747.6195m  
  750.00000p      2.9672m    747.6201m  
  760.00000p      2.9661m    747.6208m  
  770.00000p      2.9650m    747.6214m  
  780.00000p      2.9639m    747.6220m  
  790.00000p      2.9628m    747.6226m  
  800.00000p      2.9617m    747.6233m  
  810.00000p      2.9606m    747.6239m  
  820.00000p      2.9595m    747.6245m  
  830.00000p      2.9584m    747.6251m  
  840.00000p      2.9573m    747.6258m  
  850.00000p      2.9562m    747.6264m  
  860.00000p      2.9572m    747.6258m  
  870.00000p      2.9582m    747.6252m  
  880.00000p      2.9593m    747.6245m  
  890.00000p      2.9604m    747.6239m  
  900.00000p      2.9615m    747.6233m  
  910.00000p      2.9626m    747.6227m  
  920.00000p      2.9637m    747.6220m  
  930.00000p      2.9647m    747.6214m  
  940.00000p      2.9658m    747.6208m  
  950.00000p      2.9669m    747.6201m  
  960.00000p      2.9680m    747.6195m  
  970.00000p      2.9691m    747.6189m  
  980.00000p      2.9702m    747.6182m  
  990.00000p      2.9712m    747.6176m  
    1.00000n      2.9723m    747.6170m  
    1.01000n      2.9734m    747.6163m  
    1.02000n      2.9745m    747.6157m  
    1.03000n      2.9756m    747.6151m  
    1.04000n      2.9766m    747.6144m  
    1.05000n      2.9777m    747.6138m  
    1.06000n      2.9670m    747.6201m  
    1.07000n      2.9671m    747.6202m  
    1.08000n      2.9670m    747.6201m  
    1.09000n      2.9670m    747.6201m  
    1.10000n      2.9670m    747.6201m  
    1.11000n      2.9670m    747.6201m  
    1.12000n      2.9670m    747.6201m  
    1.13000n      2.9670m    747.6201m  
    1.14000n      2.9670m    747.6201m  
    1.15000n      2.9670m    747.6201m  
    1.16000n      2.9670m    747.6201m  
    1.17000n      2.9670m    747.6201m  
    1.18000n      2.9670m    747.6201m  
    1.19000n      2.9670m    747.6201m  
    1.20000n      2.9670m    747.6201m  
    1.21000n      2.9670m    747.6201m  
    1.22000n      2.9670m    747.6201m  
    1.23000n      2.9670m    747.6201m  
    1.24000n      2.9670m    747.6201m  
    1.25000n      2.9670m    747.6201m  
    1.26000n      2.9670m    747.6201m  
    1.27000n      2.9670m    747.6201m  
    1.28000n      2.9670m    747.6201m  
    1.29000n      2.9670m    747.6201m  
    1.30000n      2.9670m    747.6201m  
    1.31000n      2.9670m    747.6201m  
    1.32000n      2.9670m    747.6201m  
    1.33000n      2.9670m    747.6201m  
    1.34000n      2.9670m    747.6201m  
    1.35000n      2.9670m    747.6201m  
    1.36000n      2.9670m    747.6201m  
    1.37000n      2.9670m    747.6201m  
    1.38000n      2.9670m    747.6201m  
    1.39000n      2.9670m    747.6201m  
    1.40000n      2.9670m    747.6201m  
    1.41000n      2.9670m    747.6201m  
    1.42000n      2.9670m    747.6201m  
    1.43000n      2.9670m    747.6201m  
    1.44000n      2.9670m    747.6201m  
    1.45000n      2.9670m    747.6201m  
    1.46000n      2.9670m    747.6201m  
    1.47000n      2.9670m    747.6201m  
    1.48000n      2.9670m    747.6201m  
    1.49000n      2.9670m    747.6201m  
    1.50000n      2.9670m    747.6201m  
    1.51000n      2.9670m    747.6201m  
    1.52000n      2.9670m    747.6201m  
    1.53000n      2.9670m    747.6201m  
    1.54000n      2.9670m    747.6201m  
    1.55000n      2.9670m    747.6201m  
    1.56000n      2.9670m    747.6201m  
    1.57000n      2.9670m    747.6201m  
    1.58000n      2.9670m    747.6201m  
    1.59000n      2.9670m    747.6201m  
    1.60000n      2.9670m    747.6201m  
    1.61000n      2.9670m    747.6201m  
    1.62000n      2.9670m    747.6201m  
    1.63000n      2.9670m    747.6201m  
    1.64000n      2.9670m    747.6201m  
    1.65000n      2.9670m    747.6201m  
    1.66000n      2.9670m    747.6201m  
    1.67000n      2.9670m    747.6201m  
    1.68000n      2.9670m    747.6201m  
    1.69000n      2.9670m    747.6201m  
    1.70000n      2.9670m    747.6201m  
    1.71000n      2.9670m    747.6201m  
    1.72000n      2.9670m    747.6201m  
    1.73000n      2.9670m    747.6201m  
    1.74000n      2.9670m    747.6201m  
    1.75000n      2.9670m    747.6201m  
    1.76000n      2.9670m    747.6201m  
    1.77000n      2.9670m    747.6201m  
    1.78000n      2.9670m    747.6201m  
    1.79000n      2.9670m    747.6201m  
    1.80000n      2.9670m    747.6201m  
    1.81000n      2.9670m    747.6201m  
    1.82000n      2.9670m    747.6201m  
    1.83000n      2.9670m    747.6201m  
    1.84000n      2.9670m    747.6201m  
    1.85000n      2.9670m    747.6201m  
    1.86000n      2.9670m    747.6201m  
    1.87000n      2.9670m    747.6201m  
    1.88000n      2.9670m    747.6201m  
    1.89000n      2.9670m    747.6201m  
    1.90000n      2.9670m    747.6201m  
    1.91000n      2.9670m    747.6201m  
    1.92000n      2.9670m    747.6201m  
    1.93000n      2.9670m    747.6201m  
    1.94000n      2.9670m    747.6201m  
    1.95000n      2.9670m    747.6201m  
    1.96000n      2.9670m    747.6201m  
    1.97000n      2.9670m    747.6201m  
    1.98000n      2.9670m    747.6201m  
    1.99000n      2.9670m    747.6201m  
    2.00000n      2.9670m    747.6201m  
    2.01000n      2.9670m    747.6201m  
    2.02000n      2.9670m    747.6201m  
    2.03000n      2.9670m    747.6201m  
    2.04000n      2.9670m    747.6201m  
    2.05000n      2.9670m    747.6201m  
    2.06000n      3.7363m    747.6388m  
    2.07000n     13.6009m    747.4192m  
    2.08000n    376.9699m    562.4712m  
    2.09000n    744.5329m      3.6908m  
    2.10000n    747.4625m      3.6948m  
    2.11000n    747.6070m      2.9540m  
    2.12000n    747.6450m      2.9969m  
    2.13000n    747.6258m      2.9736m  
    2.14000n    747.6070m      2.9508m  
    2.15000n    747.6132m      2.9586m  
    2.16000n    747.6194m      2.9663m  
    2.17000n    747.6256m      2.9741m  
    2.18000n    747.6319m      2.9819m  
    2.19000n    747.6381m      2.9897m  
    2.20000n    747.6443m      2.9975m  
    2.21000n    747.6440m      2.9970m  
    2.22000n    747.6411m      2.9934m  
    2.23000n    747.6383m      2.9898m  
    2.24000n    747.6354m      2.9862m  
    2.25000n    747.6326m      2.9826m  
    2.26000n    747.6297m      2.9791m  
    2.27000n    747.6269m      2.9755m  
    2.28000n    747.6241m      2.9719m  
    2.29000n    747.6212m      2.9683m  
    2.30000n    747.6184m      2.9647m  
    2.31000n    747.6155m      2.9611m  
    2.32000n    747.6127m      2.9575m  
    2.33000n    747.6098m      2.9539m  
    2.34000n    747.6081m      2.9517m  
    2.35000n    747.6100m      2.9541m  
    2.36000n    747.6119m      2.9565m  
    2.37000n    747.6138m      2.9589m  
    2.38000n    747.6157m      2.9613m  
    2.39000n    747.6176m      2.9637m  
    2.40000n    747.6195m      2.9662m  
    2.41000n    747.6214m      2.9686m  
    2.42000n    747.6233m      2.9710m  
    2.43000n    747.6252m      2.9734m  
    2.44000n    747.6271m      2.9758m  
    2.45000n    747.6290m      2.9782m  
    2.46000n    747.6309m      2.9806m  
    2.47000n    747.6328m      2.9830m  
    2.48000n    747.6347m      2.9855m  
    2.49000n    747.6366m      2.9879m  
    2.50000n    747.6385m      2.9903m  
    2.51000n    747.6403m      2.9927m  
    2.52000n    747.6422m      2.9951m  
    2.53000n    747.6441m      2.9975m  
    2.54000n    747.6452m      2.9988m  
    2.55000n    747.6433m      2.9964m  
    2.56000n    747.6414m      2.9940m  
    2.57000n    747.6395m      2.9916m  
    2.58000n    747.6376m      2.9892m  
    2.59000n    747.6358m      2.9868m  
    2.60000n    747.6339m      2.9844m  
    2.61000n    747.6320m      2.9820m  
    2.62000n    747.6301m      2.9796m  
    2.63000n    747.6282m      2.9772m  
    2.64000n    747.6264m      2.9748m  
    2.65000n    747.6245m      2.9724m  
    2.66000n    747.6226m      2.9700m  
    2.67000n    747.6207m      2.9676m  
    2.68000n    747.6188m      2.9652m  
    2.69000n    747.6170m      2.9628m  
    2.70000n    747.6151m      2.9604m  
    2.71000n    747.6132m      2.9580m  
    2.72000n    747.6113m      2.9556m  
    2.73000n    747.6094m      2.9532m  
    2.74000n    747.6084m      2.9519m  
    2.75000n    747.6103m      2.9543m  
    2.76000n    747.6121m      2.9567m  
    2.77000n    747.6140m      2.9591m  
    2.78000n    747.6159m      2.9614m  
    2.79000n    747.6177m      2.9638m  
    2.80000n    747.6196m      2.9662m  
    2.81000n    747.6215m      2.9686m  
    2.82000n    747.6233m      2.9710m  
    2.83000n    747.6252m      2.9734m  
    2.84000n    747.6271m      2.9758m  
    2.85000n    747.6289m      2.9782m  
    2.86000n    747.6308m      2.9806m  
    2.87000n    747.6327m      2.9830m  
    2.88000n    747.6345m      2.9854m  
    2.89000n    747.6364m      2.9878m  
    2.90000n    747.6383m      2.9902m  
    2.91000n    747.6401m      2.9926m  
    2.92000n    747.6420m      2.9949m  
    2.93000n    747.6438m      2.9973m  
    2.94000n    747.6445m      2.9982m  
    2.95000n    747.6412m      2.9940m  
    2.96000n    747.6380m      2.9897m  
    2.97000n    747.6347m      2.9855m  
    2.98000n    747.6314m      2.9813m  
    2.99000n    747.6281m      2.9770m  
    3.00000n    747.6248m      2.9728m  
    3.01000n    747.6216m      2.9685m  
    3.02000n    747.6183m      2.9643m  
    3.03000n    747.6150m      2.9601m  
    3.04000n    747.6117m      2.9558m  
    3.05000n    747.6084m      2.9516m  
    3.06000n    747.6271m      2.9757m  
    3.07000n    747.6266m      2.9751m  
    3.08000n    747.6267m      2.9754m  
    3.09000n    747.6267m      2.9753m  
    3.10000n    747.6267m      2.9753m  
    3.11000n    747.6267m      2.9753m  
    3.12000n    747.6267m      2.9753m  
    3.13000n    747.6267m      2.9753m  
    3.14000n    747.6267m      2.9753m  
    3.15000n    747.6267m      2.9753m  
    3.16000n    747.6267m      2.9753m  
    3.17000n    747.6267m      2.9753m  
    3.18000n    747.6267m      2.9753m  
    3.19000n    747.6267m      2.9753m  
    3.20000n    747.6267m      2.9753m  
    3.21000n    747.6267m      2.9753m  
    3.22000n    747.6267m      2.9753m  
    3.23000n    747.6267m      2.9753m  
    3.24000n    747.6267m      2.9753m  
    3.25000n    747.6267m      2.9753m  
    3.26000n    747.6267m      2.9753m  
    3.27000n    747.6267m      2.9753m  
    3.28000n    747.6267m      2.9753m  
    3.29000n    747.6267m      2.9753m  
    3.30000n    747.6267m      2.9753m  
    3.31000n    747.6267m      2.9753m  
    3.32000n    747.6267m      2.9753m  
    3.33000n    747.6267m      2.9753m  
    3.34000n    747.6267m      2.9753m  
    3.35000n    747.6267m      2.9753m  
    3.36000n    747.6267m      2.9753m  
    3.37000n    747.6267m      2.9753m  
    3.38000n    747.6267m      2.9753m  
    3.39000n    747.6267m      2.9753m  
    3.40000n    747.6267m      2.9753m  
    3.41000n    747.6267m      2.9753m  
    3.42000n    747.6267m      2.9753m  
    3.43000n    747.6267m      2.9753m  
    3.44000n    747.6267m      2.9753m  
    3.45000n    747.6267m      2.9753m  
    3.46000n    747.6267m      2.9753m  
    3.47000n    747.6267m      2.9753m  
    3.48000n    747.6267m      2.9753m  
    3.49000n    747.6267m      2.9753m  
    3.50000n    747.6267m      2.9753m  
    3.51000n    747.6267m      2.9753m  
    3.52000n    747.6267m      2.9753m  
    3.53000n    747.6267m      2.9753m  
    3.54000n    747.6267m      2.9753m  
    3.55000n    747.6267m      2.9753m  
    3.56000n    747.6267m      2.9753m  
    3.57000n    747.6267m      2.9753m  
    3.58000n    747.6267m      2.9753m  
    3.59000n    747.6267m      2.9753m  
    3.60000n    747.6267m      2.9753m  
    3.61000n    747.6267m      2.9753m  
    3.62000n    747.6267m      2.9753m  
    3.63000n    747.6267m      2.9753m  
    3.64000n    747.6267m      2.9753m  
    3.65000n    747.6267m      2.9753m  
    3.66000n    747.6267m      2.9753m  
    3.67000n    747.6267m      2.9753m  
    3.68000n    747.6267m      2.9753m  
    3.69000n    747.6267m      2.9753m  
    3.70000n    747.6267m      2.9753m  
    3.71000n    747.6267m      2.9753m  
    3.72000n    747.6267m      2.9753m  
    3.73000n    747.6267m      2.9753m  
    3.74000n    747.6267m      2.9753m  
    3.75000n    747.6267m      2.9753m  
    3.76000n    747.6267m      2.9753m  
    3.77000n    747.6267m      2.9753m  
    3.78000n    747.6267m      2.9753m  
    3.79000n    747.6267m      2.9753m  
    3.80000n    747.6267m      2.9753m  
    3.81000n    747.6267m      2.9753m  
    3.82000n    747.6267m      2.9753m  
    3.83000n    747.6267m      2.9753m  
    3.84000n    747.6267m      2.9753m  
    3.85000n    747.6267m      2.9753m  
    3.86000n    747.6267m      2.9753m  
    3.87000n    747.6267m      2.9753m  
    3.88000n    747.6267m      2.9753m  
    3.89000n    747.6267m      2.9753m  
    3.90000n    747.6267m      2.9753m  
    3.91000n    747.6267m      2.9753m  
    3.92000n    747.6267m      2.9753m  
    3.93000n    747.6267m      2.9753m  
    3.94000n    747.6267m      2.9753m  
    3.95000n    747.6267m      2.9753m  
    3.96000n    747.6267m      2.9753m  
    3.97000n    747.6267m      2.9753m  
    3.98000n    747.6267m      2.9753m  
    3.99000n    747.6267m      2.9753m  
    4.00000n    747.6267m      2.9753m  
y

          ***** job concluded
1****** HSPICE -- F-2011.09-SP2 64-BIT (Feb 27 2012) linux ******               
 ******  
 $ netlist of inverter

  ******  job statistics summary tnom=  25.000 temp=  25.000 *****
  
  
 ******  Machine Information  ******
 CPU:
 model name	: Intel(R) Xeon(R) CPU E5-2650 v4 @ 2.20GHz
 cpu MHz	: 2596.515
  
 OS:
 Linux version 3.10.0-693.17.1.el7.x86_64 (mockbuild@x86-041.build.eng.bos.redha
 t.com) (gcc version 4.8.5 20150623 (Red Hat 4.8.5-16) (GCC) ) #1 SMP Sun Jan 14
  10:36:03 EST 2018


  ******  HSPICE Threads Information  ******

  Command Line Threads Count :     1
  Available CPU Count        :    24
  Actual Threads Count       :     1


  ******  Circuit Statistics  ******
  # nodes       =      44 # elements   =      19
  # resistors   =       0 # capacitors =       0 # inductors   =       0
  # mutual_inds =       0 # vccs       =       0 # vcvs        =       0
  # cccs        =       0 # ccvs       =       0 # volt_srcs   =       3
  # curr_srcs   =       0 # diodes     =       0 # bjts        =       0
  # jfets       =       0 # mosfets    =      16 # U elements  =       0
  # T elements  =       0 # W elements =       0 # B elements  =       0
  # S elements  =       0 # P elements =       0 # va device   =       0
  # vector_srcs =       0


  ******  Runtime Statistics (seconds)  ******

  analysis           time    # points   tot. iter  conv.iter
  op point           0.00           1           5
  transient          0.05         401         656         154 rev=        10
  readin             0.01
  errchk             0.00
  setup              0.00
  output             0.01


           peak memory used        135.46 megabytes
           total cpu time            0.08 seconds
           total elapsed time        0.89 seconds
           job started at     22:56:10 09/14/2020
           job ended   at     22:56:11 09/14/2020


 lic: Release hspice token(s) 
