 ****** HSPICE -- F-2011.09-SP2 64-BIT (Feb 27 2012) linux ******               
  Copyright (C) 2011 Synopsys, Inc. All Rights Reserved.                        
  Unpublished-rights reserved under US copyright laws.
  This program is protected by law and is subject to the
  terms and conditions of the license agreement from Synopsys.
  Use of this program is your acceptance to be bound by the
  license agreement. HSPICE is the trademark of Synopsys, Inc.
  Input File: ptm10lstp.sp                                                      
  Command line options: ptm10lstp.sp
 lic:  
 lic: FLEXlm: v10.8 
 lic: USER:   iliabautista         HOSTNAME: itn0.rc.usf.edu 
 lic: HOSTID:                      PID:      17028 
 lic: Using FLEXlm license file: 
 lic: 27000@license0.rc.usf.edu 
 lic: Checkout 1 hspice 
 lic: License/Maintenance for hspice will expire on 18-jul-2021/2019.06 
 lic: 1(in_use)/50(total) FLOATING license(s) on SERVER license0.rc.usf.edu 
 lic:   
  **warning** (../modelfiles/lstp/10nfet.pm:4) Model nfet device geometries will not be checked against the limits set by lmin, lmax, nfinmin and nfinmax. To enable this check, add a period(.) to the model name(i.e. enable model selector).
1****** HSPICE -- F-2011.09-SP2 64-BIT (Feb 27 2012) linux ******               
 ******  
 $ netlist of inverter

  ******  circuit name directory
 circuit number to circuit name directory
   number circuitname                     definition         multiplier
        0 main circuit
        1 xinput_0.                       inverter           1.00 
        2 xinput_1.                       inverter           1.00 
        3 xmodel_uut_grid.                model_uut_grid     1.00 
        4 xoutput_00.                     inverter           1.00 
        5 xoutput_10.                     inverter           1.00 
        6 xinput_0.xpfet.                 pfet               1.00 
        7 xinput_0.xnfet.                 nfet               1.00 
        8 xinput_1.xpfet.                 pfet               1.00 
        9 xinput_1.xnfet.                 nfet               1.00 
       10 xmodel_uut_grid.xinverter00.    inverter           1.00 
       11 xmodel_uut_grid.xinverter10.    inverter           1.00 
       12 xmodel_uut_grid.xinverter01.    inverter           1.00 
       13 xmodel_uut_grid.xinverter11.    inverter           1.00 
       14 xoutput_00.xpfet.               pfet               1.00 
       15 xoutput_00.xnfet.               nfet               1.00 
       16 xoutput_10.xpfet.               pfet               1.00 
       17 xoutput_10.xnfet.               nfet               1.00 
       18 xmodel_uut_grid.xinverter00.xpfet.
                                            pfet               1.00 
       19 xmodel_uut_grid.xinverter00.xnfet.
                                            nfet               1.00 
       20 xmodel_uut_grid.xinverter10.xpfet.
                                            pfet               1.00 
       21 xmodel_uut_grid.xinverter10.xnfet.
                                            nfet               1.00 
       22 xmodel_uut_grid.xinverter01.xpfet.
                                            pfet               1.00 
       23 xmodel_uut_grid.xinverter01.xnfet.
                                            nfet               1.00 
       24 xmodel_uut_grid.xinverter11.xpfet.
                                            pfet               1.00 
       25 xmodel_uut_grid.xinverter11.xnfet.
                                            nfet               1.00 
1****** HSPICE -- F-2011.09-SP2 64-BIT (Feb 27 2012) linux ******               
 ******  
 $ netlist of inverter

  ******  mos   model parameters tnom=  25.000 temp=  25.000 *****
 Model Name: pfet 
 BSIM-MG BULK Model(Level72)
   VERSION = 105.03  
   DEVTYPE = -1 
   BULKMOD = 1  
   COREMOD = 0 
   GEOMOD = 1 
   RDSMOD = 1 
   IGCMOD = 1 
   IGBMOD = 1 
   GIDLMOD = 0 
   IIMOD = 0 
   NQSMOD = 0 
   SHMOD = 0 
   RGATEMOD = 0 
   RGEOMOD = 1 
   CGEOMOD = 2 
   CAPMOD = 0 
   LINT =      0 m
   LL =      0 m^(LLN+1)
   LLN =      1 
   DLC =      0 m
   DLBIN =      0 
   LLC =      0 m^(LLN+1)
   EOT = 8.8e-10 m
   TOXP = 1.2e-09 m
   EOTBOX = 1.4e-07 m
   HFIN = 2.1e-08 m
   FECH =      1 
   DELTAW =      0 m
   FECHCV =      1 
   DELTAWCV =      0 m
   NBODY = 2.5e+22 m^-3
   NSD =  3e+26 m^-3
   PHIG =  4.566 eV
   EPSROX =    3.9 
   EPSRSUB =   11.9 
   EASUB =   4.05 eV
   NI0SUB = 1.1e+16 m^-3
   BG0SUB =   1.12 eV
   NC0SUB = 2.86e+25 m^-3
   NGATE =      0 m^-3
   CIT = 1.3e-05 F/m^2
   CDSC =  0.024 F/m^2
   CDSCD =  0.007 F/m^2
   CDSCDR =  0.007 
   DVT0 =   0.01 
   DVT1 =   0.69 
   PHIN =   0.05 V
   ETA0 =   0.57 
   ETA0R =   0.57 
   DSUB =    0.9 
   K1RSCE =      0 V^1/2
   LPE0 =  5e-09 m
   DVTSHIFT =      0 
   QMFACTOR =      0 
   QMTCENIV =      0 
   QMTCENCV =      0 
   AQMTCEN =      0 
   BQMTCEN = 1.2e-08 
   ETAQM =   0.54 
   QM0 = 0.001143 
   PQM =   0.66 
   QM0ACC =  0.001 
   PQMACC =   0.66 
   VSAT = 1.29e+05 
   AVSAT =      0 
   BVSAT =  1e-07 
   VSAT1 = 1.29e+05 
   AVSAT1 =      0 
   BVSAT1 =  1e-07 
   DELTAVSAT =      1 
   KSATIV =    0.8 
   MEXP =      3 
   AMEXP =      0 
   BMEXP =      1 
   PTWG =      0 
   APTWG =      0 
   BPTWG =  1e-07 
   AT = -0.00156 
   TMEXP =      0 
   PTWGT =  0.004 
   U0 =  0.036 
   ETAMOB =      2 
   UP =      0 
   LPA =      1 
   UA =    0.3 
   AUA =      0 
   BUA =  1e-07 
   EU =    1.8 
   AEU =      0 
   BEU =  1e-07 
   UD =      0 
   AUD =      0 
   BUD =  5e-08 
   UCS =      0 
   UTE =      0 
   UTL = -0.0015 
   UA1 = 0.001032 
   UD1 =      0 
   UCSTE = -0.00478 
   RDSWMIN =      0 
   RDSW =    100 
   ARDSW =      0 
   BRDSW =  1e-07 
   RSWMIN =      0 
   RSW =      0 
   ARSW =      0 
   BRSW =  1e-07 
   RDWMIN =      0 
   RDW =      0 
   ARDW =      0 
   BRDW =  1e-07 
   PRWG =      0 
   WR =      1 
   PRT =  0.001 
   PDIBL1 =    1.3 
   PDIBL2 = 0.0002 
   DROUT =   1.06 
   PVAG =      1 
   PCLM =    0.2 
   APCLM =      0 
   BPCLM =  1e-07 
   PCLMG =      0 
   VASAT =    0.6 
   PCLMCV =  0.013 
   PCLMGCV =      0 
   VASATCV =    0.2 
   RGEXT =      0 ohm
   RGFIN =  0.001 ohm
   RSHS =      0 ohm
   RSHD =      0 ohm
   HEPI = 8.5e-09 m
   TSILI =  7e-09 m
   RHOC =  7e-13 ohm/m^2
   RHORSD =      1 ohm/m
   RHOEXT =      1 ohm/m
   CRATIO =    0.5 
   DELTAPRSD =      0 m
   SDTERM = 0 
   LSP = 2.8e-09 m
   LDG =  2e-09 m
   EPSRSP =    3.9 
   TGATE =  8e-09 m
   TMASK =      0 m
   ASILIEND =      0 m^2
   ARSDEND =      0 m^2
   PRSDEND =      0 m
   NSDE =  6e+25 m^-3
   RGEOA =      1 
   RGEOB =      0 m^-1
   RGEOC =      0 m^-1
   RGEOD =      0 m^-1
   RGEOE =      0 m^-1
   CGEOA =      1 
   CGEOB =      0 m^-1
   CGEOC =      0 m^-1
   CGEOD =      0 m^-1
   CGEOE =      1 
   AIGBINV = 0.0111 (Fs^2/g)^0.5m^-1
   BIGBINV =   0.03 (Fs^2/g)^0.5m^-1
   CIGBINV =  0.006 V^-1
   EIGBINV =    1.1 V
   NIGBINV =    1.2 
   AIGBACC = 0.0149 
   BIGBACC = 0.000949 
   CIGBACC =  0.075 
   NIGBACC =      3 
   AIGC = 0.0136 (Fs^2/g)^0.5m^-1
   BIGC = 0.00171 (Fs^2/g)^0.5m^-1V^-1
   CIGC =  0.075 V^-1
   NIGC =      1 
   DLCIGS =      0 m
   AIGS = 0.0136 (Fs^2/g)^0.5m^-1
   BIGS = 0.00171 (Fs^2/g)^0.5m^-1V^-1
   CIGS =  0.075 V^-1
   DLCIGD =      0 m
   AIGD = 0.0136 (Fs^2/g)^0.5m^-1
   BIGD = 0.00171 (Fs^2/g)^0.5m^-1V^-1
   CIGD =  0.075 V^-1
   POXEDGE =      1 
   AGIDL = 5.729e-12 ohm^-1
   BGIDL =  3e+08 V/m
   EGIDL =    0.1 V
   AGISL = 5.729e-12 ohm^-1
   BGISL =  3e+08 V/m
   EGISL =    0.1 V
   ALPHA0 =      0 mV^-1
   ALPHA1 =      0 V^-1
   BETA0 =     30 V^-1
   ALPHAII =      0 
   BETAII0 =      0 V^-1
   BETAII1 =      0 
   BETAII2 =    0.1 V
   ESATII =  1e+07 V/m
   LII =  5e-10 V/m
   SII0 =    0.5 V^-1
   SII1 =    0.1 
   SII2 =      0 V
   SIID =      0 V
   EOTACC = 8.8e-10 m
   DELVFBACC =      0 V
   CFS = 2.56e-11 F/m
   CFD = 2.65e-11 F/m
   COVS = 2.5e-11 F/m
   COVD = 2.5e-11 F/m
   CGSO =      0 F/m
   CGDO =      0 F/m
   CGSL =      0 F/m
   CGDL =      0 F/m
   CKAPPAS =    0.6 V
   CKAPPAD =    0.6 V
   CGBO =      0 F/m
   CGBL =      0 F/m
   CKAPPAB =    0.6 V
   CSDESW =      0 F/m
   CJS = 0.0005 F/m^2
   CJD = 0.0005 F/m^2
   CJSWS =  5e-10 F/m
   CJSWD =  5e-10 F/m
   CJSWGS =      0 F/m
   CJSWGD =      0 F/m
   PBS =      1 V
   PBD =      1 V
   PBSWS =      1 V
   PBSWD =      1 V
   PBSWGS =      1 V
   PBSWGD =      1 V
   MJS, =    0.5 
   MJD =    0.5 
   MJSWS =   0.33 
   MJSWD =   0.33 
   MJSWGS =   0.33 
   MJSWGD =   0.33 
   SJS =      0 
   SJD =      0 
   SJSWS =      0 
   SJSWD =      0 
   SJSWGS =      0 
   SJSWGD =      0 
   MJS2 =  0.125 
   MJD2 =  0.125 
   MJSWS2 =   0.33 
   MJSWD2 =   0.33 
   MJSWGS2 =   0.33 
   MJSWGD2 =   0.33 
   JSS = 0.0001 A/m^2
   JSD = 0.0001 A/m^2
   JSWS =      0 A/m
   JSWD =      0 A/m
   JSWGS =      0 A/m
   JSWGD =      0 A/m
   NJS =      1 
   NJD =      1 
   IJTHSFWD =    0.1 A
   IJTHDFWD =    0.1 A
   IJTHSREV =    0.1 A
   IJTHDREV =    0.1 A
   BVS =     10 V
   BVD =     10 V
   XJBVS =      1 
   XJBVD =      1 
   JTSS =      0 A/m^2
   JTSD =      0 A/m^2
   JTSSWS =      0 A/m
   JTSSWD =      0 A/m
   JTSSWGS =      0 A/m
   JTSSWGD =      0 A/m
   JTWEFF =      0 m
   NJTS =     20 
   NJTSD =     20 
   NJTSSW =     20 
   NJTSSWD =     20 
   NJTSSWG =     20 
   NJTSSWGD =     20 
   VTSS =     10 V
   VTSD =     10 V
   VTSSWS =     10 V
   VTSSWD =     10 V
   VTSSWGS =     10 V
   VTSSWGD =     10 V
   LINTIGEN =      0 m
   NTGEN =      1 
   AIGEN =      0 m^-3V^-1
   BIGEN =      0 m^-3V^-3
   XRCRG1 =     12 
   XRCRG2 =      1 
   NSEG = 5 
   EF =      1 
   EM = 4.1e+07 V/m
   NOIA = 6.25e+39 eV^-1s^1-EFm^-3
   NOIB = 3.125e+24 eV^-1s^1-EFm^-1
   NOIC = 8.75e+07 eV^-1s^1-EFm
   NTNOI =      1 
   TNOM =  300.1 K
   TBGASUB = 0.000702 eV/K
   TBGBSUB =   1108 K
   KT1 =      0 V
   KT1L =      0 Vm
   IIT =   -0.5 
   TII =      0 
   TGIDL = -0.0003 K^-1
   IGT =    2.5 
   TCJ =      0 K^-1
   TCJSW =      0 K^-1
   TCJSWG =      0 K^-1
   TPB =      0 K^-1
   TPBSW =      0 K^-1
   TPBSWG =      0 K^-1
   XTIS =      3 
   XTID =      3 
   XTSS =   0.02 
   XTSD =   0.02 
   XTSSWS =   0.02 
   XTSSWD =   0.02 
   XTSSWGS =   0.02 
   XTSSWGD =   0.02 
   TNJTS =      0 
   TNJTSD =      0 
   TNJTSSW =      0 
   TNJTSSWD =      0 
   TNJTSSWG =      0 
   TNJTSSWGD =      0 
   RTH0 =   0.01 ohm
   CTH0 =  1e-05 F
   WTH0 =      0 m
   LNBODY =      0 
   NNBODY =      0 
   PNBODY =      0 
   LPHIG =      0 
   NPHIG =      0 
   PPHIG =      0 
   LNGATE =      0 
   NNGATE =      0 
   PNGATE =      0 
   LCIT =      0 
   NCIT =      0 
   PCIT =      0 
   LCDSC =      0 
   NCDSC =      0 
   PCDSC =      0 
   LCDSCD =      0 
   NCDSCD =      0 
   PCDSCD =      0 
   LCDSCDR =      0 
   NCDSCDR =      0 
   PCDSCDR =      0 
   LDVT0 =      0 
   NDVT0 =      0 
   PDVT0 =      0 
   LDVT1 =      0 
   NDVT1 =      0 
   PDVT1 =      0 
   LPHIN =      0 
   NPHIN =      0 
   PPHIN =      0 
   LETA0 =      0 
   NETA0 =      0 
   PETA0 =      0 
   LETA0R =      0 
   NETA0R =      0 
   PETA0R =      0 
   LDSUB =      0 
   NDSUB =      0 
   PDSUB =      0 
   LK1RSCE =      0 
   NK1RSCE =      0 
   PK1RSCE =      0 
   LLPE0 =      0 
   NLPE0 =      0 
   PLPE0 =      0 
   LQMFACTOR =      0 
   NQMFACTOR =      0 
   PQMFACTOR =      0 
   LQMTCENIV =      0 
   NQMTCENIV =      0 
   PQMTCENIV =      0 
   LQMTCENCV =      0 
   NQMTCENCV =      0 
   PQMTCENCV =      0 
   LVSAT =      0 
   NVSAT =      0 
   PVSAT =      0 
   LKSATIV =      0 
   NKSATIV =      0 
   PKSATIV =      0 
   LMEXP =      0 
   NMEXP =      0 
   PMEXP =      0 
   LPTWG =      0 
   NPTWG =      0 
   PPTWG =      0 
   LTHETASAT =      0 
   NTHETASAT =      0 
   PTHETASAT =      0 
   LU0 =      0 
   NU0 =      0 
   PU0 =      0 
   LUP =      0 
   NUP =      0 
   PUP =      0 
   LUA =      0 
   NUA =      0 
   PUA =      0 
   LEU =      0 
   NEU =      0 
   PEU =      0 
   LUD =      0 
   NUD =      0 
   PUD =      0 
   LUCS =      0 
   NUCS =      0 
   PUCS =      0 
   LPCLM =      0 
   NPCLM =      0 
   PPCLM =      0 
   LPCLMCV =      0 
   NPCLMCV =      0 
   PPCLMCV =      0 
   LRDSW =      0 
   NRDSW =      0 
   PRDSW =      0 
   LRSW =      0 
   NRSW =      0 
   PRSW =      0 
   LRDW =      0 
   NRDW =      0 
   PRDW =      0 
   LPRWG =      0 
   NPRWG =      0 
   PPRWG =      0 
   LWR =      0 
   NWR =      0 
   PWR =      0 
   LPDIBL1 =      0 
   NPDIBL1 =      0 
   PPDIBL1 =      0 
   LPDIBL2 =      0 
   NPDIBL2 =      0 
   PPDIBL2 =      0 
   LDROUT =      0 
   NDROUT =      0 
   PDROUT =      0 
   LPVAG =      0 
   NPVAG =      0 
   PPVAG =      0 
   LAIGBINV =      0 
   NAIGBINV =      0 
   PAIGBINV =      0 
   LBIGBINV =      0 
   NBIGBINV =      0 
   PBIGBINV =      0 
   LCIGBINV =      0 
   NCIGBINV =      0 
   PCIGBINV =      0 
   LEIGBINV =      0 
   NEIGBINV =      0 
   PEIGBINV =      0 
   LNIGBINV =      0 
   NNIGBINV =      0 
   PNIGBINV =      0 
   LAIGC =      0 
   NAIGC =      0 
   PAIGC =      0 
   LBIGC =      0 
   NBIGC =      0 
   PBIGC =      0 
   LCIGC =      0 
   NCIGC =      0 
   PCIGC =      0 
   LNIGC =      0 
   NNIGC =      0 
   PNIGC =      0 
   LAIGS =      0 
   NAIGS =      0 
   PAIGS =      0 
   LBIGS =      0 
   NBIGS =      0 
   PBIGS =      0 
   LCIGS =      0 
   NCIGS =      0 
   PCIGS =      0 
   LAIGD =      0 
   NAIGD =      0 
   PAIGD =      0 
   LBIGD =      0 
   NBIGD =      0 
   PBIGD =      0 
   LCIGD =      0 
   NCIGD =      0 
   PCIGD =      0 
   LPOXEDGE =      0 
   NPOXEDGE =      0 
   PPOXEDGE =      0 
   LAGIDL =      0 
   NAGIDL =      0 
   PAGIDL =      0 
   LBGIDL =      0 
   NBGIDL =      0 
   PBGIDL =      0 
   LEGIDL =      0 
   NEGIDL =      0 
   PEGIDL =      0 
   LAGISL =      0 
   NAGISL =      0 
   PAGISL =      0 
   LBGISL =      0 
   NBGISL =      0 
   PBGISL =      0 
   LEGISL =      0 
   NEGISL =      0 
   PEGISL =      0 
   LALPHA0 =      0 
   NALPHA0 =      0 
   PALPHA0 =      0 
   LALPHA1 =      0 
   NALPHA1 =      0 
   PALPHA1 =      0 
   LBETA0 =      0 
   NBETA0 =      0 
   PBETA0 =      0 
   LALPHAII =      0 
   NALPHAII =      0 
   PALPHAII =      0 
   LBETAII0 =      0 
   NBETAII0 =      0 
   PBETAII0 =      0 
   LBETAII1 =      0 
   NBETAII1 =      0 
   PBETAII1 =      0 
   LBETAII2 =      0 
   NBETAII2 =      0 
   PBETAII2 =      0 
   LESATII =      0 
   NESATII =      0 
   PESATII =      0 
   LLII =      0 
   NLII =      0 
   PLII =      0 
   LSII0 =      0 
   NSII0 =      0 
   PSII0 =      0 
   LSII1 =      0 
   NSII1 =      0 
   PSII1 =      0 
   LSII2 =      0 
   NSII2 =      0 
   PSII2 =      0 
   LSIID =      0 
   NSIID =      0 
   PSIID =      0 
   LCFS =      0 
   NCFS =      0 
   PCFS =      0 
   LCFD =      0 
   NCFD =      0 
   PCFD =      0 
   LCOVS =      0 
   NCOVS =      0 
   PCOVS =      0 
   LCOVD =      0 
   NCOVD =      0 
   PCOVD =      0 
   LCGSL =      0 
   NCGSL =      0 
   PCGSL =      0 
   LCGDL =      0 
   NCGDL =      0 
   PCGDL =      0 
   LCKAPPAS =      0 
   NCKAPPAS =      0 
   PCKAPPAS =      0 
   LCKAPPAD =      0 
   NCKAPPAD =      0 
   PCKAPPAD =      0 
   LCGBL =      0 
   NCGBL =      0 
   PCGBL =      0 
   LCKAPPAB =      0 
   NCKAPPAB =      0 
   PCKAPPAB =      0 
   LNTGEN =      0 
   NNTGEN =      0 
   PNTGEN =      0 
   LAIGEN =      0 
   NAIGEN =      0 
   PAIGEN =      0 
   LBIGEN =      0 
   NBIGEN =      0 
   PBIGEN =      0 
   LXRCRG1 =      0 
   NXRCRG1 =      0 
   PXRCRG1 =      0 
   LXRCRG2 =      0 
   NXRCRG2 =      0 
   PXRCRG2 =      0 
   LINTNOI =      0 
   NINTNOI =      0 
   PINTNOI =      0 
   LUTE =      0 
   NUTE =      0 
   PUTE =      0 
   LUTL =      0 
   NUTL =      0 
   PUTL =      0 
   LUA1 =      0 
   NUA1 =      0 
   PUA1 =      0 
   LUD1 =      0 
   NUD1 =      0 
   PUD1 =      0 
   LUCSTE =      0 
   NUCSTE =      0 
   PUCSTE =      0 
   LPTWGT =      0 
   NPTWGT =      0 
   PPTWGT =      0 
   LAT =      0 
   NAT =      0 
   PAT =      0 
   LSTTHETASAT =      0 
   NSTTHETASAT =      0 
   PSTTHETASAT =      0 
   LPRT =      0 
   NPRT =      0 
   PPRT =      0 
   LIIT =      0 
   NIIT =      0 
   PIIT =      0 
   LTII =      0 
   NTII =      0 
   PTII =      0 
   LTGIDL =      0 
   NTGIDL =      0 
   PTGIDL =      0 
   LIGT =      0 
   NIGT =      0 
   PIGT =      0 
   L = 1.4e-08 m
   D =  4e-08 m
   TFIN =  8e-09 m
   FPITCH = 2.8e-08 m
   NF = 1 
   NFIN = 1 
   NGCON = 1 
   ASEO =      0 m^2
   ADEO =      0 m^2
   PSEO =      0 m
   PDEO =      0 m
   ASEJ =      0 m^2
   ADEJ =      0 m^2
   PSEJ =      0 m
   PDEJ =      0 m
   CGSP =      0 F
   CGDP =      0 F
   CDSP =      0 F
   NRS =      0 
   NRD =      0 
   LRSD = 1.4e-08 m
   XL =      0 m
   DELVTRAND =      0 
   U0MULT =      1 
   IDS0MULT =      1 
   Lmin =  1e-08 m
   Lmax =  3e-08 m
   NFINmin = 0 
   NFINmax = 1 
   LVSAT1 =      0 
   NVSAT1 =      0 
   PVSAT1 =      0 
   LETAMOB =      0 
   NETAMOB =      0 
   PETAMOB =      0 
   LPCLMG =      0 
   NPCLMG =      0 
   PPCLMG =      0 
   LVASAT =      0 
   NVASAT =      0 
   PVASAT =      0 
   LAIGBACC =      0 
   NAIGBACC =      0 
   PAIGBACC =      0 
   LBIGBACC =      0 
   NBIGBACC =      0 
   PBIGBACC =      0 
   LCIGBACC =      0 
   NCIGBACC =      0 
   PCIGBACC =      0 
   LNIGBACC =      0 
   NNIGBACC =      0 
   PNIGBACC =      0 
 Model Name: nfet 
 BSIM-MG BULK Model(Level72)
   VERSION = 105.03  
   DEVTYPE = 1 
   BULKMOD = 1  
   COREMOD = 0 
   GEOMOD = 1 
   RDSMOD = 1 
   IGCMOD = 1 
   IGBMOD = 1 
   GIDLMOD = 0 
   IIMOD = 0 
   NQSMOD = 0 
   SHMOD = 0 
   RGATEMOD = 0 
   RGEOMOD = 1 
   CGEOMOD = 2 
   CAPMOD = 0 
   LINT =      0 m
   LL =      0 m^(LLN+1)
   LLN =      1 
   DLC =      0 m
   DLBIN =      0 
   LLC =      0 m^(LLN+1)
   EOT = 8.8e-10 m
   TOXP = 1.2e-09 m
   EOTBOX = 1.4e-07 m
   HFIN = 2.1e-08 m
   FECH =      1 
   DELTAW =      0 m
   FECHCV =      1 
   DELTAWCV =      0 m
   NBODY = 2.5e+22 m^-3
   NSD =  3e+26 m^-3
   PHIG =  4.604 eV
   EPSROX =    3.9 
   EPSRSUB =   11.9 
   EASUB =   4.05 eV
   NI0SUB = 1.1e+16 m^-3
   BG0SUB =   1.12 eV
   NC0SUB = 2.86e+25 m^-3
   NGATE =      0 m^-3
   CIT = 1.3e-05 F/m^2
   CDSC =  0.022 F/m^2
   CDSCD =  0.007 F/m^2
   CDSCDR =  0.007 
   DVT0 =   0.01 
   DVT1 =   0.69 
   PHIN =   0.05 V
   ETA0 = 0.4079 
   ETA0R = 0.4079 
   DSUB =    0.9 
   K1RSCE =      0 V^1/2
   LPE0 =  5e-09 m
   DVTSHIFT =      0 
   QMFACTOR =      0 
   QMTCENIV =      0 
   QMTCENCV =      0 
   AQMTCEN =      0 
   BQMTCEN = 1.2e-08 
   ETAQM =   0.54 
   QM0 = 0.001143 
   PQM =   0.66 
   QM0ACC =  0.001 
   PQMACC =   0.66 
   VSAT = 1.32e+05 
   AVSAT =      0 
   BVSAT =  1e-07 
   VSAT1 = 1.32e+05 
   AVSAT1 =      0 
   BVSAT1 =  1e-07 
   DELTAVSAT =      1 
   KSATIV =    0.8 
   MEXP =      3 
   AMEXP =      0 
   BMEXP =      1 
   PTWG =      0 
   APTWG =      0 
   BPTWG =  1e-07 
   AT = -0.00156 
   TMEXP =      0 
   PTWGT =  0.004 
   U0 = 0.0568 
   ETAMOB =      2 
   UP =      0 
   LPA =      1 
   UA =    0.3 
   AUA =      0 
   BUA =  1e-07 
   EU =    1.8 
   AEU =      0 
   BEU =  1e-07 
   UD =      0 
   AUD =      0 
   BUD =  5e-08 
   UCS =      0 
   UTE =      0 
   UTL = -0.0015 
   UA1 = 0.001032 
   UD1 =      0 
   UCSTE = -0.00478 
   RDSWMIN =      0 
   RDSW =    100 
   ARDSW =      0 
   BRDSW =  1e-07 
   RSWMIN =      0 
   RSW =      0 
   ARSW =      0 
   BRSW =  1e-07 
   RDWMIN =      0 
   RDW =      0 
   ARDW =      0 
   BRDW =  1e-07 
   PRWG =      0 
   WR =      1 
   PRT =  0.001 
   PDIBL1 =    1.3 
   PDIBL2 = 0.0002 
   DROUT =   1.06 
   PVAG =      1 
   PCLM =    0.2 
   APCLM =      0 
   BPCLM =  1e-07 
   PCLMG =      0 
   VASAT =    0.6 
   PCLMCV =  0.013 
   PCLMGCV =      0 
   VASATCV =    0.2 
   RGEXT =      0 ohm
   RGFIN =  0.001 ohm
   RSHS =      0 ohm
   RSHD =      0 ohm
   HEPI = 8.5e-09 m
   TSILI =  7e-09 m
   RHOC =  6e-13 ohm/m^2
   RHORSD =      1 ohm/m
   RHOEXT =      1 ohm/m
   CRATIO =    0.5 
   DELTAPRSD =      0 m
   SDTERM = 0 
   LSP = 2.8e-09 m
   LDG =  2e-09 m
   EPSRSP =    3.9 
   TGATE =  8e-09 m
   TMASK =      0 m
   ASILIEND =      0 m^2
   ARSDEND =      0 m^2
   PRSDEND =      0 m
   NSDE =  6e+25 m^-3
   RGEOA =      1 
   RGEOB =      0 m^-1
   RGEOC =      0 m^-1
   RGEOD =      0 m^-1
   RGEOE =      0 m^-1
   CGEOA =      1 
   CGEOB =      0 m^-1
   CGEOC =      0 m^-1
   CGEOD =      0 m^-1
   CGEOE =      1 
   AIGBINV = 0.0111 (Fs^2/g)^0.5m^-1
   BIGBINV =   0.03 (Fs^2/g)^0.5m^-1
   CIGBINV =  0.006 V^-1
   EIGBINV =    1.1 V
   NIGBINV =    1.2 
   AIGBACC = 0.0149 
   BIGBACC = 0.000949 
   CIGBACC =  0.075 
   NIGBACC =      3 
   AIGC = 0.0136 (Fs^2/g)^0.5m^-1
   BIGC = 0.00171 (Fs^2/g)^0.5m^-1V^-1
   CIGC =  0.075 V^-1
   NIGC =      1 
   DLCIGS =      0 m
   AIGS = 0.0136 (Fs^2/g)^0.5m^-1
   BIGS = 0.00171 (Fs^2/g)^0.5m^-1V^-1
   CIGS =  0.075 V^-1
   DLCIGD =      0 m
   AIGD = 0.0136 (Fs^2/g)^0.5m^-1
   BIGD = 0.00171 (Fs^2/g)^0.5m^-1V^-1
   CIGD =  0.075 V^-1
   POXEDGE =      1 
   AGIDL = 5.729e-12 ohm^-1
   BGIDL =  3e+08 V/m
   EGIDL =    0.1 V
   AGISL = 5.729e-12 ohm^-1
   BGISL =  3e+08 V/m
   EGISL =    0.1 V
   ALPHA0 =      0 mV^-1
   ALPHA1 =      0 V^-1
   BETA0 =     30 V^-1
   ALPHAII =      0 
   BETAII0 =      0 V^-1
   BETAII1 =      0 
   BETAII2 =    0.1 V
   ESATII =  1e+07 V/m
   LII =  5e-10 V/m
   SII0 =    0.5 V^-1
   SII1 =    0.1 
   SII2 =      0 V
   SIID =      0 V
   EOTACC = 8.8e-10 m
   DELVFBACC =      0 V
   CFS = 2.56e-11 F/m
   CFD = 2.65e-11 F/m
   COVS = 2.5e-11 F/m
   COVD = 2.5e-11 F/m
   CGSO =      0 F/m
   CGDO =      0 F/m
   CGSL =      0 F/m
   CGDL =      0 F/m
   CKAPPAS =    0.6 V
   CKAPPAD =    0.6 V
   CGBO =      0 F/m
   CGBL =      0 F/m
   CKAPPAB =    0.6 V
   CSDESW =      0 F/m
   CJS = 0.0005 F/m^2
   CJD = 0.0005 F/m^2
   CJSWS =  5e-10 F/m
   CJSWD =  5e-10 F/m
   CJSWGS =      0 F/m
   CJSWGD =      0 F/m
   PBS =      1 V
   PBD =      1 V
   PBSWS =      1 V
   PBSWD =      1 V
   PBSWGS =      1 V
   PBSWGD =      1 V
   MJS, =    0.5 
   MJD =    0.5 
   MJSWS =   0.33 
   MJSWD =   0.33 
   MJSWGS =   0.33 
   MJSWGD =   0.33 
   SJS =      0 
   SJD =      0 
   SJSWS =      0 
   SJSWD =      0 
   SJSWGS =      0 
   SJSWGD =      0 
   MJS2 =  0.125 
   MJD2 =  0.125 
   MJSWS2 =   0.33 
   MJSWD2 =   0.33 
   MJSWGS2 =   0.33 
   MJSWGD2 =   0.33 
   JSS = 0.0001 A/m^2
   JSD = 0.0001 A/m^2
   JSWS =      0 A/m
   JSWD =      0 A/m
   JSWGS =      0 A/m
   JSWGD =      0 A/m
   NJS =      1 
   NJD =      1 
   IJTHSFWD =    0.1 A
   IJTHDFWD =    0.1 A
   IJTHSREV =    0.1 A
   IJTHDREV =    0.1 A
   BVS =     10 V
   BVD =     10 V
   XJBVS =      1 
   XJBVD =      1 
   JTSS =      0 A/m^2
   JTSD =      0 A/m^2
   JTSSWS =      0 A/m
   JTSSWD =      0 A/m
   JTSSWGS =      0 A/m
   JTSSWGD =      0 A/m
   JTWEFF =      0 m
   NJTS =     20 
   NJTSD =     20 
   NJTSSW =     20 
   NJTSSWD =     20 
   NJTSSWG =     20 
   NJTSSWGD =     20 
   VTSS =     10 V
   VTSD =     10 V
   VTSSWS =     10 V
   VTSSWD =     10 V
   VTSSWGS =     10 V
   VTSSWGD =     10 V
   LINTIGEN =      0 m
   NTGEN =      1 
   AIGEN =      0 m^-3V^-1
   BIGEN =      0 m^-3V^-3
   XRCRG1 =     12 
   XRCRG2 =      1 
   NSEG = 5 
   EF =      1 
   EM = 4.1e+07 V/m
   NOIA = 6.25e+39 eV^-1s^1-EFm^-3
   NOIB = 3.125e+24 eV^-1s^1-EFm^-1
   NOIC = 8.75e+07 eV^-1s^1-EFm
   NTNOI =      1 
   TNOM =  300.1 K
   TBGASUB = 0.000702 eV/K
   TBGBSUB =   1108 K
   KT1 =      0 V
   KT1L =      0 Vm
   IIT =   -0.5 
   TII =      0 
   TGIDL = -0.0003 K^-1
   IGT =    2.5 
   TCJ =      0 K^-1
   TCJSW =      0 K^-1
   TCJSWG =      0 K^-1
   TPB =      0 K^-1
   TPBSW =      0 K^-1
   TPBSWG =      0 K^-1
   XTIS =      3 
   XTID =      3 
   XTSS =   0.02 
   XTSD =   0.02 
   XTSSWS =   0.02 
   XTSSWD =   0.02 
   XTSSWGS =   0.02 
   XTSSWGD =   0.02 
   TNJTS =      0 
   TNJTSD =      0 
   TNJTSSW =      0 
   TNJTSSWD =      0 
   TNJTSSWG =      0 
   TNJTSSWGD =      0 
   RTH0 =   0.01 ohm
   CTH0 =  1e-05 F
   WTH0 =      0 m
   LNBODY =      0 
   NNBODY =      0 
   PNBODY =      0 
   LPHIG =      0 
   NPHIG =      0 
   PPHIG =      0 
   LNGATE =      0 
   NNGATE =      0 
   PNGATE =      0 
   LCIT =      0 
   NCIT =      0 
   PCIT =      0 
   LCDSC =      0 
   NCDSC =      0 
   PCDSC =      0 
   LCDSCD =      0 
   NCDSCD =      0 
   PCDSCD =      0 
   LCDSCDR =      0 
   NCDSCDR =      0 
   PCDSCDR =      0 
   LDVT0 =      0 
   NDVT0 =      0 
   PDVT0 =      0 
   LDVT1 =      0 
   NDVT1 =      0 
   PDVT1 =      0 
   LPHIN =      0 
   NPHIN =      0 
   PPHIN =      0 
   LETA0 =      0 
   NETA0 =      0 
   PETA0 =      0 
   LETA0R =      0 
   NETA0R =      0 
   PETA0R =      0 
   LDSUB =      0 
   NDSUB =      0 
   PDSUB =      0 
   LK1RSCE =      0 
   NK1RSCE =      0 
   PK1RSCE =      0 
   LLPE0 =      0 
   NLPE0 =      0 
   PLPE0 =      0 
   LQMFACTOR =      0 
   NQMFACTOR =      0 
   PQMFACTOR =      0 
   LQMTCENIV =      0 
   NQMTCENIV =      0 
   PQMTCENIV =      0 
   LQMTCENCV =      0 
   NQMTCENCV =      0 
   PQMTCENCV =      0 
   LVSAT =      0 
   NVSAT =      0 
   PVSAT =      0 
   LKSATIV =      0 
   NKSATIV =      0 
   PKSATIV =      0 
   LMEXP =      0 
   NMEXP =      0 
   PMEXP =      0 
   LPTWG =      0 
   NPTWG =      0 
   PPTWG =      0 
   LTHETASAT =      0 
   NTHETASAT =      0 
   PTHETASAT =      0 
   LU0 =      0 
   NU0 =      0 
   PU0 =      0 
   LUP =      0 
   NUP =      0 
   PUP =      0 
   LUA =      0 
   NUA =      0 
   PUA =      0 
   LEU =      0 
   NEU =      0 
   PEU =      0 
   LUD =      0 
   NUD =      0 
   PUD =      0 
   LUCS =      0 
   NUCS =      0 
   PUCS =      0 
   LPCLM =      0 
   NPCLM =      0 
   PPCLM =      0 
   LPCLMCV =      0 
   NPCLMCV =      0 
   PPCLMCV =      0 
   LRDSW =      0 
   NRDSW =      0 
   PRDSW =      0 
   LRSW =      0 
   NRSW =      0 
   PRSW =      0 
   LRDW =      0 
   NRDW =      0 
   PRDW =      0 
   LPRWG =      0 
   NPRWG =      0 
   PPRWG =      0 
   LWR =      0 
   NWR =      0 
   PWR =      0 
   LPDIBL1 =      0 
   NPDIBL1 =      0 
   PPDIBL1 =      0 
   LPDIBL2 =      0 
   NPDIBL2 =      0 
   PPDIBL2 =      0 
   LDROUT =      0 
   NDROUT =      0 
   PDROUT =      0 
   LPVAG =      0 
   NPVAG =      0 
   PPVAG =      0 
   LAIGBINV =      0 
   NAIGBINV =      0 
   PAIGBINV =      0 
   LBIGBINV =      0 
   NBIGBINV =      0 
   PBIGBINV =      0 
   LCIGBINV =      0 
   NCIGBINV =      0 
   PCIGBINV =      0 
   LEIGBINV =      0 
   NEIGBINV =      0 
   PEIGBINV =      0 
   LNIGBINV =      0 
   NNIGBINV =      0 
   PNIGBINV =      0 
   LAIGC =      0 
   NAIGC =      0 
   PAIGC =      0 
   LBIGC =      0 
   NBIGC =      0 
   PBIGC =      0 
   LCIGC =      0 
   NCIGC =      0 
   PCIGC =      0 
   LNIGC =      0 
   NNIGC =      0 
   PNIGC =      0 
   LAIGS =      0 
   NAIGS =      0 
   PAIGS =      0 
   LBIGS =      0 
   NBIGS =      0 
   PBIGS =      0 
   LCIGS =      0 
   NCIGS =      0 
   PCIGS =      0 
   LAIGD =      0 
   NAIGD =      0 
   PAIGD =      0 
   LBIGD =      0 
   NBIGD =      0 
   PBIGD =      0 
   LCIGD =      0 
   NCIGD =      0 
   PCIGD =      0 
   LPOXEDGE =      0 
   NPOXEDGE =      0 
   PPOXEDGE =      0 
   LAGIDL =      0 
   NAGIDL =      0 
   PAGIDL =      0 
   LBGIDL =      0 
   NBGIDL =      0 
   PBGIDL =      0 
   LEGIDL =      0 
   NEGIDL =      0 
   PEGIDL =      0 
   LAGISL =      0 
   NAGISL =      0 
   PAGISL =      0 
   LBGISL =      0 
   NBGISL =      0 
   PBGISL =      0 
   LEGISL =      0 
   NEGISL =      0 
   PEGISL =      0 
   LALPHA0 =      0 
   NALPHA0 =      0 
   PALPHA0 =      0 
   LALPHA1 =      0 
   NALPHA1 =      0 
   PALPHA1 =      0 
   LBETA0 =      0 
   NBETA0 =      0 
   PBETA0 =      0 
   LALPHAII =      0 
   NALPHAII =      0 
   PALPHAII =      0 
   LBETAII0 =      0 
   NBETAII0 =      0 
   PBETAII0 =      0 
   LBETAII1 =      0 
   NBETAII1 =      0 
   PBETAII1 =      0 
   LBETAII2 =      0 
   NBETAII2 =      0 
   PBETAII2 =      0 
   LESATII =      0 
   NESATII =      0 
   PESATII =      0 
   LLII =      0 
   NLII =      0 
   PLII =      0 
   LSII0 =      0 
   NSII0 =      0 
   PSII0 =      0 
   LSII1 =      0 
   NSII1 =      0 
   PSII1 =      0 
   LSII2 =      0 
   NSII2 =      0 
   PSII2 =      0 
   LSIID =      0 
   NSIID =      0 
   PSIID =      0 
   LCFS =      0 
   NCFS =      0 
   PCFS =      0 
   LCFD =      0 
   NCFD =      0 
   PCFD =      0 
   LCOVS =      0 
   NCOVS =      0 
   PCOVS =      0 
   LCOVD =      0 
   NCOVD =      0 
   PCOVD =      0 
   LCGSL =      0 
   NCGSL =      0 
   PCGSL =      0 
   LCGDL =      0 
   NCGDL =      0 
   PCGDL =      0 
   LCKAPPAS =      0 
   NCKAPPAS =      0 
   PCKAPPAS =      0 
   LCKAPPAD =      0 
   NCKAPPAD =      0 
   PCKAPPAD =      0 
   LCGBL =      0 
   NCGBL =      0 
   PCGBL =      0 
   LCKAPPAB =      0 
   NCKAPPAB =      0 
   PCKAPPAB =      0 
   LNTGEN =      0 
   NNTGEN =      0 
   PNTGEN =      0 
   LAIGEN =      0 
   NAIGEN =      0 
   PAIGEN =      0 
   LBIGEN =      0 
   NBIGEN =      0 
   PBIGEN =      0 
   LXRCRG1 =      0 
   NXRCRG1 =      0 
   PXRCRG1 =      0 
   LXRCRG2 =      0 
   NXRCRG2 =      0 
   PXRCRG2 =      0 
   LINTNOI =      0 
   NINTNOI =      0 
   PINTNOI =      0 
   LUTE =      0 
   NUTE =      0 
   PUTE =      0 
   LUTL =      0 
   NUTL =      0 
   PUTL =      0 
   LUA1 =      0 
   NUA1 =      0 
   PUA1 =      0 
   LUD1 =      0 
   NUD1 =      0 
   PUD1 =      0 
   LUCSTE =      0 
   NUCSTE =      0 
   PUCSTE =      0 
   LPTWGT =      0 
   NPTWGT =      0 
   PPTWGT =      0 
   LAT =      0 
   NAT =      0 
   PAT =      0 
   LSTTHETASAT =      0 
   NSTTHETASAT =      0 
   PSTTHETASAT =      0 
   LPRT =      0 
   NPRT =      0 
   PPRT =      0 
   LIIT =      0 
   NIIT =      0 
   PIIT =      0 
   LTII =      0 
   NTII =      0 
   PTII =      0 
   LTGIDL =      0 
   NTGIDL =      0 
   PTGIDL =      0 
   LIGT =      0 
   NIGT =      0 
   PIGT =      0 
   L = 1.4e-08 m
   D =  4e-08 m
   TFIN =  8e-09 m
   FPITCH = 2.8e-08 m
   NF = 1 
   NFIN = 1 
   NGCON = 1 
   ASEO =      0 m^2
   ADEO =      0 m^2
   PSEO =      0 m
   PDEO =      0 m
   ASEJ =      0 m^2
   ADEJ =      0 m^2
   PSEJ =      0 m
   PDEJ =      0 m
   CGSP =      0 F
   CGDP =      0 F
   CDSP =      0 F
   NRS =      0 
   NRD =      0 
   LRSD = 1.4e-08 m
   XL =      0 m
   DELVTRAND =      0 
   U0MULT =      1 
   IDS0MULT =      1 
   Lmin =  1e-08 m
   Lmax =  3e-08 m
   NFINmin = 0 
   NFINmax = 1 
   LVSAT1 =      0 
   NVSAT1 =      0 
   PVSAT1 =      0 
   LETAMOB =      0 
   NETAMOB =      0 
   PETAMOB =      0 
   LPCLMG =      0 
   NPCLMG =      0 
   PPCLMG =      0 
   LVASAT =      0 
   NVASAT =      0 
   PVASAT =      0 
   LAIGBACC =      0 
   NAIGBACC =      0 
   PAIGBACC =      0 
   LBIGBACC =      0 
   NBIGBACC =      0 
   PBIGBACC =      0 
   LCIGBACC =      0 
   NCIGBACC =      0 
   PCIGBACC =      0 
   LNIGBACC =      0 
   NNIGBACC =      0 
   PNIGBACC =      0 
 Model Name: pfet 
 BSIM-MG BULK Model(Level72)
   VERSION = 105.03  
   DEVTYPE = -1 
   BULKMOD = 1  
   COREMOD = 0 
   GEOMOD = 1 
   RDSMOD = 1 
   IGCMOD = 1 
   IGBMOD = 1 
   GIDLMOD = 0 
   IIMOD = 0 
   NQSMOD = 0 
   SHMOD = 0 
   RGATEMOD = 0 
   RGEOMOD = 1 
   CGEOMOD = 2 
   CAPMOD = 0 
   LINT =      0 m
   LL =      0 m^(LLN+1)
   LLN =      1 
   DLC =      0 m
   DLBIN =      0 
   LLC =      0 m^(LLN+1)
   EOT = 8.8e-10 m
   TOXP = 1.2e-09 m
   EOTBOX = 1.4e-07 m
   HFIN = 2.1e-08 m
   FECH =      1 
   DELTAW =      0 m
   FECHCV =      1 
   DELTAWCV =      0 m
   NBODY = 2.5e+22 m^-3
   NSD =  3e+26 m^-3
   PHIG =  4.566 eV
   EPSROX =    3.9 
   EPSRSUB =   11.9 
   EASUB =   4.05 eV
   NI0SUB = 1.1e+16 m^-3
   BG0SUB =   1.12 eV
   NC0SUB = 2.86e+25 m^-3
   NGATE =      0 m^-3
   CIT = 1.3e-05 F/m^2
   CDSC =  0.024 F/m^2
   CDSCD =  0.007 F/m^2
   CDSCDR =  0.007 
   DVT0 =   0.01 
   DVT1 =   0.69 
   PHIN =   0.05 V
   ETA0 =   0.57 
   ETA0R =   0.57 
   DSUB =    0.9 
   K1RSCE =      0 V^1/2
   LPE0 =  5e-09 m
   DVTSHIFT =      0 
   QMFACTOR =      0 
   QMTCENIV =      0 
   QMTCENCV =      0 
   AQMTCEN =      0 
   BQMTCEN = 1.2e-08 
   ETAQM =   0.54 
   QM0 = 0.001143 
   PQM =   0.66 
   QM0ACC =  0.001 
   PQMACC =   0.66 
   VSAT = 1.29e+05 
   AVSAT =      0 
   BVSAT =  1e-07 
   VSAT1 = 1.29e+05 
   AVSAT1 =      0 
   BVSAT1 =  1e-07 
   DELTAVSAT =      1 
   KSATIV =    0.8 
   MEXP =      3 
   AMEXP =      0 
   BMEXP =      1 
   PTWG =      0 
   APTWG =      0 
   BPTWG =  1e-07 
   AT = -0.00156 
   TMEXP =      0 
   PTWGT =  0.004 
   U0 =  0.036 
   ETAMOB =      2 
   UP =      0 
   LPA =      1 
   UA =    0.3 
   AUA =      0 
   BUA =  1e-07 
   EU =    1.8 
   AEU =      0 
   BEU =  1e-07 
   UD =      0 
   AUD =      0 
   BUD =  5e-08 
   UCS =      0 
   UTE =      0 
   UTL = -0.0015 
   UA1 = 0.001032 
   UD1 =      0 
   UCSTE = -0.00478 
   RDSWMIN =      0 
   RDSW =    100 
   ARDSW =      0 
   BRDSW =  1e-07 
   RSWMIN =      0 
   RSW =      0 
   ARSW =      0 
   BRSW =  1e-07 
   RDWMIN =      0 
   RDW =      0 
   ARDW =      0 
   BRDW =  1e-07 
   PRWG =      0 
   WR =      1 
   PRT =  0.001 
   PDIBL1 =    1.3 
   PDIBL2 = 0.0002 
   DROUT =   1.06 
   PVAG =      1 
   PCLM =    0.2 
   APCLM =      0 
   BPCLM =  1e-07 
   PCLMG =      0 
   VASAT =    0.6 
   PCLMCV =  0.013 
   PCLMGCV =      0 
   VASATCV =    0.2 
   RGEXT =      0 ohm
   RGFIN =  0.001 ohm
   RSHS =      0 ohm
   RSHD =      0 ohm
   HEPI = 8.5e-09 m
   TSILI =  7e-09 m
   RHOC =  7e-13 ohm/m^2
   RHORSD =      1 ohm/m
   RHOEXT =      1 ohm/m
   CRATIO =    0.5 
   DELTAPRSD =      0 m
   SDTERM = 0 
   LSP = 2.8e-09 m
   LDG =  2e-09 m
   EPSRSP =    3.9 
   TGATE =  8e-09 m
   TMASK =      0 m
   ASILIEND =      0 m^2
   ARSDEND =      0 m^2
   PRSDEND =      0 m
   NSDE =  6e+25 m^-3
   RGEOA =      1 
   RGEOB =      0 m^-1
   RGEOC =      0 m^-1
   RGEOD =      0 m^-1
   RGEOE =      0 m^-1
   CGEOA =      1 
   CGEOB =      0 m^-1
   CGEOC =      0 m^-1
   CGEOD =      0 m^-1
   CGEOE =      1 
   AIGBINV = 0.0111 (Fs^2/g)^0.5m^-1
   BIGBINV =   0.03 (Fs^2/g)^0.5m^-1
   CIGBINV =  0.006 V^-1
   EIGBINV =    1.1 V
   NIGBINV =    1.2 
   AIGBACC = 0.0149 
   BIGBACC = 0.000949 
   CIGBACC =  0.075 
   NIGBACC =      3 
   AIGC = 0.0136 (Fs^2/g)^0.5m^-1
   BIGC = 0.00171 (Fs^2/g)^0.5m^-1V^-1
   CIGC =  0.075 V^-1
   NIGC =      1 
   DLCIGS =      0 m
   AIGS = 0.0136 (Fs^2/g)^0.5m^-1
   BIGS = 0.00171 (Fs^2/g)^0.5m^-1V^-1
   CIGS =  0.075 V^-1
   DLCIGD =      0 m
   AIGD = 0.0136 (Fs^2/g)^0.5m^-1
   BIGD = 0.00171 (Fs^2/g)^0.5m^-1V^-1
   CIGD =  0.075 V^-1
   POXEDGE =      1 
   AGIDL = 5.729e-12 ohm^-1
   BGIDL =  3e+08 V/m
   EGIDL =    0.1 V
   AGISL = 5.729e-12 ohm^-1
   BGISL =  3e+08 V/m
   EGISL =    0.1 V
   ALPHA0 =      0 mV^-1
   ALPHA1 =      0 V^-1
   BETA0 =     30 V^-1
   ALPHAII =      0 
   BETAII0 =      0 V^-1
   BETAII1 =      0 
   BETAII2 =    0.1 V
   ESATII =  1e+07 V/m
   LII =  5e-10 V/m
   SII0 =    0.5 V^-1
   SII1 =    0.1 
   SII2 =      0 V
   SIID =      0 V
   EOTACC = 8.8e-10 m
   DELVFBACC =      0 V
   CFS = 2.56e-11 F/m
   CFD = 2.65e-11 F/m
   COVS = 2.5e-11 F/m
   COVD = 2.5e-11 F/m
   CGSO =      0 F/m
   CGDO =      0 F/m
   CGSL =      0 F/m
   CGDL =      0 F/m
   CKAPPAS =    0.6 V
   CKAPPAD =    0.6 V
   CGBO =      0 F/m
   CGBL =      0 F/m
   CKAPPAB =    0.6 V
   CSDESW =      0 F/m
   CJS = 0.0005 F/m^2
   CJD = 0.0005 F/m^2
   CJSWS =  5e-10 F/m
   CJSWD =  5e-10 F/m
   CJSWGS =      0 F/m
   CJSWGD =      0 F/m
   PBS =      1 V
   PBD =      1 V
   PBSWS =      1 V
   PBSWD =      1 V
   PBSWGS =      1 V
   PBSWGD =      1 V
   MJS, =    0.5 
   MJD =    0.5 
   MJSWS =   0.33 
   MJSWD =   0.33 
   MJSWGS =   0.33 
   MJSWGD =   0.33 
   SJS =      0 
   SJD =      0 
   SJSWS =      0 
   SJSWD =      0 
   SJSWGS =      0 
   SJSWGD =      0 
   MJS2 =  0.125 
   MJD2 =  0.125 
   MJSWS2 =   0.33 
   MJSWD2 =   0.33 
   MJSWGS2 =   0.33 
   MJSWGD2 =   0.33 
   JSS = 0.0001 A/m^2
   JSD = 0.0001 A/m^2
   JSWS =      0 A/m
   JSWD =      0 A/m
   JSWGS =      0 A/m
   JSWGD =      0 A/m
   NJS =      1 
   NJD =      1 
   IJTHSFWD =    0.1 A
   IJTHDFWD =    0.1 A
   IJTHSREV =    0.1 A
   IJTHDREV =    0.1 A
   BVS =     10 V
   BVD =     10 V
   XJBVS =      1 
   XJBVD =      1 
   JTSS =      0 A/m^2
   JTSD =      0 A/m^2
   JTSSWS =      0 A/m
   JTSSWD =      0 A/m
   JTSSWGS =      0 A/m
   JTSSWGD =      0 A/m
   JTWEFF =      0 m
   NJTS =     20 
   NJTSD =     20 
   NJTSSW =     20 
   NJTSSWD =     20 
   NJTSSWG =     20 
   NJTSSWGD =     20 
   VTSS =     10 V
   VTSD =     10 V
   VTSSWS =     10 V
   VTSSWD =     10 V
   VTSSWGS =     10 V
   VTSSWGD =     10 V
   LINTIGEN =      0 m
   NTGEN =      1 
   AIGEN =      0 m^-3V^-1
   BIGEN =      0 m^-3V^-3
   XRCRG1 =     12 
   XRCRG2 =      1 
   NSEG = 5 
   EF =      1 
   EM = 4.1e+07 V/m
   NOIA = 6.25e+39 eV^-1s^1-EFm^-3
   NOIB = 3.125e+24 eV^-1s^1-EFm^-1
   NOIC = 8.75e+07 eV^-1s^1-EFm
   NTNOI =      1 
   TNOM =  300.1 K
   TBGASUB = 0.000702 eV/K
   TBGBSUB =   1108 K
   KT1 =      0 V
   KT1L =      0 Vm
   IIT =   -0.5 
   TII =      0 
   TGIDL = -0.0003 K^-1
   IGT =    2.5 
   TCJ =      0 K^-1
   TCJSW =      0 K^-1
   TCJSWG =      0 K^-1
   TPB =      0 K^-1
   TPBSW =      0 K^-1
   TPBSWG =      0 K^-1
   XTIS =      3 
   XTID =      3 
   XTSS =   0.02 
   XTSD =   0.02 
   XTSSWS =   0.02 
   XTSSWD =   0.02 
   XTSSWGS =   0.02 
   XTSSWGD =   0.02 
   TNJTS =      0 
   TNJTSD =      0 
   TNJTSSW =      0 
   TNJTSSWD =      0 
   TNJTSSWG =      0 
   TNJTSSWGD =      0 
   RTH0 =   0.01 ohm
   CTH0 =  1e-05 F
   WTH0 =      0 m
   LNBODY =      0 
   NNBODY =      0 
   PNBODY =      0 
   LPHIG =      0 
   NPHIG =      0 
   PPHIG =      0 
   LNGATE =      0 
   NNGATE =      0 
   PNGATE =      0 
   LCIT =      0 
   NCIT =      0 
   PCIT =      0 
   LCDSC =      0 
   NCDSC =      0 
   PCDSC =      0 
   LCDSCD =      0 
   NCDSCD =      0 
   PCDSCD =      0 
   LCDSCDR =      0 
   NCDSCDR =      0 
   PCDSCDR =      0 
   LDVT0 =      0 
   NDVT0 =      0 
   PDVT0 =      0 
   LDVT1 =      0 
   NDVT1 =      0 
   PDVT1 =      0 
   LPHIN =      0 
   NPHIN =      0 
   PPHIN =      0 
   LETA0 =      0 
   NETA0 =      0 
   PETA0 =      0 
   LETA0R =      0 
   NETA0R =      0 
   PETA0R =      0 
   LDSUB =      0 
   NDSUB =      0 
   PDSUB =      0 
   LK1RSCE =      0 
   NK1RSCE =      0 
   PK1RSCE =      0 
   LLPE0 =      0 
   NLPE0 =      0 
   PLPE0 =      0 
   LQMFACTOR =      0 
   NQMFACTOR =      0 
   PQMFACTOR =      0 
   LQMTCENIV =      0 
   NQMTCENIV =      0 
   PQMTCENIV =      0 
   LQMTCENCV =      0 
   NQMTCENCV =      0 
   PQMTCENCV =      0 
   LVSAT =      0 
   NVSAT =      0 
   PVSAT =      0 
   LKSATIV =      0 
   NKSATIV =      0 
   PKSATIV =      0 
   LMEXP =      0 
   NMEXP =      0 
   PMEXP =      0 
   LPTWG =      0 
   NPTWG =      0 
   PPTWG =      0 
   LTHETASAT =      0 
   NTHETASAT =      0 
   PTHETASAT =      0 
   LU0 =      0 
   NU0 =      0 
   PU0 =      0 
   LUP =      0 
   NUP =      0 
   PUP =      0 
   LUA =      0 
   NUA =      0 
   PUA =      0 
   LEU =      0 
   NEU =      0 
   PEU =      0 
   LUD =      0 
   NUD =      0 
   PUD =      0 
   LUCS =      0 
   NUCS =      0 
   PUCS =      0 
   LPCLM =      0 
   NPCLM =      0 
   PPCLM =      0 
   LPCLMCV =      0 
   NPCLMCV =      0 
   PPCLMCV =      0 
   LRDSW =      0 
   NRDSW =      0 
   PRDSW =      0 
   LRSW =      0 
   NRSW =      0 
   PRSW =      0 
   LRDW =      0 
   NRDW =      0 
   PRDW =      0 
   LPRWG =      0 
   NPRWG =      0 
   PPRWG =      0 
   LWR =      0 
   NWR =      0 
   PWR =      0 
   LPDIBL1 =      0 
   NPDIBL1 =      0 
   PPDIBL1 =      0 
   LPDIBL2 =      0 
   NPDIBL2 =      0 
   PPDIBL2 =      0 
   LDROUT =      0 
   NDROUT =      0 
   PDROUT =      0 
   LPVAG =      0 
   NPVAG =      0 
   PPVAG =      0 
   LAIGBINV =      0 
   NAIGBINV =      0 
   PAIGBINV =      0 
   LBIGBINV =      0 
   NBIGBINV =      0 
   PBIGBINV =      0 
   LCIGBINV =      0 
   NCIGBINV =      0 
   PCIGBINV =      0 
   LEIGBINV =      0 
   NEIGBINV =      0 
   PEIGBINV =      0 
   LNIGBINV =      0 
   NNIGBINV =      0 
   PNIGBINV =      0 
   LAIGC =      0 
   NAIGC =      0 
   PAIGC =      0 
   LBIGC =      0 
   NBIGC =      0 
   PBIGC =      0 
   LCIGC =      0 
   NCIGC =      0 
   PCIGC =      0 
   LNIGC =      0 
   NNIGC =      0 
   PNIGC =      0 
   LAIGS =      0 
   NAIGS =      0 
   PAIGS =      0 
   LBIGS =      0 
   NBIGS =      0 
   PBIGS =      0 
   LCIGS =      0 
   NCIGS =      0 
   PCIGS =      0 
   LAIGD =      0 
   NAIGD =      0 
   PAIGD =      0 
   LBIGD =      0 
   NBIGD =      0 
   PBIGD =      0 
   LCIGD =      0 
   NCIGD =      0 
   PCIGD =      0 
   LPOXEDGE =      0 
   NPOXEDGE =      0 
   PPOXEDGE =      0 
   LAGIDL =      0 
   NAGIDL =      0 
   PAGIDL =      0 
   LBGIDL =      0 
   NBGIDL =      0 
   PBGIDL =      0 
   LEGIDL =      0 
   NEGIDL =      0 
   PEGIDL =      0 
   LAGISL =      0 
   NAGISL =      0 
   PAGISL =      0 
   LBGISL =      0 
   NBGISL =      0 
   PBGISL =      0 
   LEGISL =      0 
   NEGISL =      0 
   PEGISL =      0 
   LALPHA0 =      0 
   NALPHA0 =      0 
   PALPHA0 =      0 
   LALPHA1 =      0 
   NALPHA1 =      0 
   PALPHA1 =      0 
   LBETA0 =      0 
   NBETA0 =      0 
   PBETA0 =      0 
   LALPHAII =      0 
   NALPHAII =      0 
   PALPHAII =      0 
   LBETAII0 =      0 
   NBETAII0 =      0 
   PBETAII0 =      0 
   LBETAII1 =      0 
   NBETAII1 =      0 
   PBETAII1 =      0 
   LBETAII2 =      0 
   NBETAII2 =      0 
   PBETAII2 =      0 
   LESATII =      0 
   NESATII =      0 
   PESATII =      0 
   LLII =      0 
   NLII =      0 
   PLII =      0 
   LSII0 =      0 
   NSII0 =      0 
   PSII0 =      0 
   LSII1 =      0 
   NSII1 =      0 
   PSII1 =      0 
   LSII2 =      0 
   NSII2 =      0 
   PSII2 =      0 
   LSIID =      0 
   NSIID =      0 
   PSIID =      0 
   LCFS =      0 
   NCFS =      0 
   PCFS =      0 
   LCFD =      0 
   NCFD =      0 
   PCFD =      0 
   LCOVS =      0 
   NCOVS =      0 
   PCOVS =      0 
   LCOVD =      0 
   NCOVD =      0 
   PCOVD =      0 
   LCGSL =      0 
   NCGSL =      0 
   PCGSL =      0 
   LCGDL =      0 
   NCGDL =      0 
   PCGDL =      0 
   LCKAPPAS =      0 
   NCKAPPAS =      0 
   PCKAPPAS =      0 
   LCKAPPAD =      0 
   NCKAPPAD =      0 
   PCKAPPAD =      0 
   LCGBL =      0 
   NCGBL =      0 
   PCGBL =      0 
   LCKAPPAB =      0 
   NCKAPPAB =      0 
   PCKAPPAB =      0 
   LNTGEN =      0 
   NNTGEN =      0 
   PNTGEN =      0 
   LAIGEN =      0 
   NAIGEN =      0 
   PAIGEN =      0 
   LBIGEN =      0 
   NBIGEN =      0 
   PBIGEN =      0 
   LXRCRG1 =      0 
   NXRCRG1 =      0 
   PXRCRG1 =      0 
   LXRCRG2 =      0 
   NXRCRG2 =      0 
   PXRCRG2 =      0 
   LINTNOI =      0 
   NINTNOI =      0 
   PINTNOI =      0 
   LUTE =      0 
   NUTE =      0 
   PUTE =      0 
   LUTL =      0 
   NUTL =      0 
   PUTL =      0 
   LUA1 =      0 
   NUA1 =      0 
   PUA1 =      0 
   LUD1 =      0 
   NUD1 =      0 
   PUD1 =      0 
   LUCSTE =      0 
   NUCSTE =      0 
   PUCSTE =      0 
   LPTWGT =      0 
   NPTWGT =      0 
   PPTWGT =      0 
   LAT =      0 
   NAT =      0 
   PAT =      0 
   LSTTHETASAT =      0 
   NSTTHETASAT =      0 
   PSTTHETASAT =      0 
   LPRT =      0 
   NPRT =      0 
   PPRT =      0 
   LIIT =      0 
   NIIT =      0 
   PIIT =      0 
   LTII =      0 
   NTII =      0 
   PTII =      0 
   LTGIDL =      0 
   NTGIDL =      0 
   PTGIDL =      0 
   LIGT =      0 
   NIGT =      0 
   PIGT =      0 
   L = 1.4e-08 m
   D =  4e-08 m
   TFIN =  8e-09 m
   FPITCH = 2.8e-08 m
   NF = 1 
   NFIN = 1 
   NGCON = 1 
   ASEO =      0 m^2
   ADEO =      0 m^2
   PSEO =      0 m
   PDEO =      0 m
   ASEJ =      0 m^2
   ADEJ =      0 m^2
   PSEJ =      0 m
   PDEJ =      0 m
   CGSP =      0 F
   CGDP =      0 F
   CDSP =      0 F
   NRS =      0 
   NRD =      0 
   LRSD = 1.4e-08 m
   XL =      0 m
   DELVTRAND =      0 
   U0MULT =      1 
   IDS0MULT =      1 
   Lmin =  1e-08 m
   Lmax =  3e-08 m
   NFINmin = 0 
   NFINmax = 1 
   LVSAT1 =      0 
   NVSAT1 =      0 
   PVSAT1 =      0 
   LETAMOB =      0 
   NETAMOB =      0 
   PETAMOB =      0 
   LPCLMG =      0 
   NPCLMG =      0 
   PPCLMG =      0 
   LVASAT =      0 
   NVASAT =      0 
   PVASAT =      0 
   LAIGBACC =      0 
   NAIGBACC =      0 
   PAIGBACC =      0 
   LBIGBACC =      0 
   NBIGBACC =      0 
   PBIGBACC =      0 
   LCIGBACC =      0 
   NCIGBACC =      0 
   PCIGBACC =      0 
   LNIGBACC =      0 
   NNIGBACC =      0 
   PNIGBACC =      0 
 Model Name: nfet 
 BSIM-MG BULK Model(Level72)
   VERSION = 105.03  
   DEVTYPE = 1 
   BULKMOD = 1  
   COREMOD = 0 
   GEOMOD = 1 
   RDSMOD = 1 
   IGCMOD = 1 
   IGBMOD = 1 
   GIDLMOD = 0 
   IIMOD = 0 
   NQSMOD = 0 
   SHMOD = 0 
   RGATEMOD = 0 
   RGEOMOD = 1 
   CGEOMOD = 2 
   CAPMOD = 0 
   LINT =      0 m
   LL =      0 m^(LLN+1)
   LLN =      1 
   DLC =      0 m
   DLBIN =      0 
   LLC =      0 m^(LLN+1)
   EOT = 8.8e-10 m
   TOXP = 1.2e-09 m
   EOTBOX = 1.4e-07 m
   HFIN = 2.1e-08 m
   FECH =      1 
   DELTAW =      0 m
   FECHCV =      1 
   DELTAWCV =      0 m
   NBODY = 2.5e+22 m^-3
   NSD =  3e+26 m^-3
   PHIG =  4.604 eV
   EPSROX =    3.9 
   EPSRSUB =   11.9 
   EASUB =   4.05 eV
   NI0SUB = 1.1e+16 m^-3
   BG0SUB =   1.12 eV
   NC0SUB = 2.86e+25 m^-3
   NGATE =      0 m^-3
   CIT = 1.3e-05 F/m^2
   CDSC =  0.022 F/m^2
   CDSCD =  0.007 F/m^2
   CDSCDR =  0.007 
   DVT0 =   0.01 
   DVT1 =   0.69 
   PHIN =   0.05 V
   ETA0 = 0.4079 
   ETA0R = 0.4079 
   DSUB =    0.9 
   K1RSCE =      0 V^1/2
   LPE0 =  5e-09 m
   DVTSHIFT =      0 
   QMFACTOR =      0 
   QMTCENIV =      0 
   QMTCENCV =      0 
   AQMTCEN =      0 
   BQMTCEN = 1.2e-08 
   ETAQM =   0.54 
   QM0 = 0.001143 
   PQM =   0.66 
   QM0ACC =  0.001 
   PQMACC =   0.66 
   VSAT = 1.32e+05 
   AVSAT =      0 
   BVSAT =  1e-07 
   VSAT1 = 1.32e+05 
   AVSAT1 =      0 
   BVSAT1 =  1e-07 
   DELTAVSAT =      1 
   KSATIV =    0.8 
   MEXP =      3 
   AMEXP =      0 
   BMEXP =      1 
   PTWG =      0 
   APTWG =      0 
   BPTWG =  1e-07 
   AT = -0.00156 
   TMEXP =      0 
   PTWGT =  0.004 
   U0 = 0.0568 
   ETAMOB =      2 
   UP =      0 
   LPA =      1 
   UA =    0.3 
   AUA =      0 
   BUA =  1e-07 
   EU =    1.8 
   AEU =      0 
   BEU =  1e-07 
   UD =      0 
   AUD =      0 
   BUD =  5e-08 
   UCS =      0 
   UTE =      0 
   UTL = -0.0015 
   UA1 = 0.001032 
   UD1 =      0 
   UCSTE = -0.00478 
   RDSWMIN =      0 
   RDSW =    100 
   ARDSW =      0 
   BRDSW =  1e-07 
   RSWMIN =      0 
   RSW =      0 
   ARSW =      0 
   BRSW =  1e-07 
   RDWMIN =      0 
   RDW =      0 
   ARDW =      0 
   BRDW =  1e-07 
   PRWG =      0 
   WR =      1 
   PRT =  0.001 
   PDIBL1 =    1.3 
   PDIBL2 = 0.0002 
   DROUT =   1.06 
   PVAG =      1 
   PCLM =    0.2 
   APCLM =      0 
   BPCLM =  1e-07 
   PCLMG =      0 
   VASAT =    0.6 
   PCLMCV =  0.013 
   PCLMGCV =      0 
   VASATCV =    0.2 
   RGEXT =      0 ohm
   RGFIN =  0.001 ohm
   RSHS =      0 ohm
   RSHD =      0 ohm
   HEPI = 8.5e-09 m
   TSILI =  7e-09 m
   RHOC =  6e-13 ohm/m^2
   RHORSD =      1 ohm/m
   RHOEXT =      1 ohm/m
   CRATIO =    0.5 
   DELTAPRSD =      0 m
   SDTERM = 0 
   LSP = 2.8e-09 m
   LDG =  2e-09 m
   EPSRSP =    3.9 
   TGATE =  8e-09 m
   TMASK =      0 m
   ASILIEND =      0 m^2
   ARSDEND =      0 m^2
   PRSDEND =      0 m
   NSDE =  6e+25 m^-3
   RGEOA =      1 
   RGEOB =      0 m^-1
   RGEOC =      0 m^-1
   RGEOD =      0 m^-1
   RGEOE =      0 m^-1
   CGEOA =      1 
   CGEOB =      0 m^-1
   CGEOC =      0 m^-1
   CGEOD =      0 m^-1
   CGEOE =      1 
   AIGBINV = 0.0111 (Fs^2/g)^0.5m^-1
   BIGBINV =   0.03 (Fs^2/g)^0.5m^-1
   CIGBINV =  0.006 V^-1
   EIGBINV =    1.1 V
   NIGBINV =    1.2 
   AIGBACC = 0.0149 
   BIGBACC = 0.000949 
   CIGBACC =  0.075 
   NIGBACC =      3 
   AIGC = 0.0136 (Fs^2/g)^0.5m^-1
   BIGC = 0.00171 (Fs^2/g)^0.5m^-1V^-1
   CIGC =  0.075 V^-1
   NIGC =      1 
   DLCIGS =      0 m
   AIGS = 0.0136 (Fs^2/g)^0.5m^-1
   BIGS = 0.00171 (Fs^2/g)^0.5m^-1V^-1
   CIGS =  0.075 V^-1
   DLCIGD =      0 m
   AIGD = 0.0136 (Fs^2/g)^0.5m^-1
   BIGD = 0.00171 (Fs^2/g)^0.5m^-1V^-1
   CIGD =  0.075 V^-1
   POXEDGE =      1 
   AGIDL = 5.729e-12 ohm^-1
   BGIDL =  3e+08 V/m
   EGIDL =    0.1 V
   AGISL = 5.729e-12 ohm^-1
   BGISL =  3e+08 V/m
   EGISL =    0.1 V
   ALPHA0 =      0 mV^-1
   ALPHA1 =      0 V^-1
   BETA0 =     30 V^-1
   ALPHAII =      0 
   BETAII0 =      0 V^-1
   BETAII1 =      0 
   BETAII2 =    0.1 V
   ESATII =  1e+07 V/m
   LII =  5e-10 V/m
   SII0 =    0.5 V^-1
   SII1 =    0.1 
   SII2 =      0 V
   SIID =      0 V
   EOTACC = 8.8e-10 m
   DELVFBACC =      0 V
   CFS = 2.56e-11 F/m
   CFD = 2.65e-11 F/m
   COVS = 2.5e-11 F/m
   COVD = 2.5e-11 F/m
   CGSO =      0 F/m
   CGDO =      0 F/m
   CGSL =      0 F/m
   CGDL =      0 F/m
   CKAPPAS =    0.6 V
   CKAPPAD =    0.6 V
   CGBO =      0 F/m
   CGBL =      0 F/m
   CKAPPAB =    0.6 V
   CSDESW =      0 F/m
   CJS = 0.0005 F/m^2
   CJD = 0.0005 F/m^2
   CJSWS =  5e-10 F/m
   CJSWD =  5e-10 F/m
   CJSWGS =      0 F/m
   CJSWGD =      0 F/m
   PBS =      1 V
   PBD =      1 V
   PBSWS =      1 V
   PBSWD =      1 V
   PBSWGS =      1 V
   PBSWGD =      1 V
   MJS, =    0.5 
   MJD =    0.5 
   MJSWS =   0.33 
   MJSWD =   0.33 
   MJSWGS =   0.33 
   MJSWGD =   0.33 
   SJS =      0 
   SJD =      0 
   SJSWS =      0 
   SJSWD =      0 
   SJSWGS =      0 
   SJSWGD =      0 
   MJS2 =  0.125 
   MJD2 =  0.125 
   MJSWS2 =   0.33 
   MJSWD2 =   0.33 
   MJSWGS2 =   0.33 
   MJSWGD2 =   0.33 
   JSS = 0.0001 A/m^2
   JSD = 0.0001 A/m^2
   JSWS =      0 A/m
   JSWD =      0 A/m
   JSWGS =      0 A/m
   JSWGD =      0 A/m
   NJS =      1 
   NJD =      1 
   IJTHSFWD =    0.1 A
   IJTHDFWD =    0.1 A
   IJTHSREV =    0.1 A
   IJTHDREV =    0.1 A
   BVS =     10 V
   BVD =     10 V
   XJBVS =      1 
   XJBVD =      1 
   JTSS =      0 A/m^2
   JTSD =      0 A/m^2
   JTSSWS =      0 A/m
   JTSSWD =      0 A/m
   JTSSWGS =      0 A/m
   JTSSWGD =      0 A/m
   JTWEFF =      0 m
   NJTS =     20 
   NJTSD =     20 
   NJTSSW =     20 
   NJTSSWD =     20 
   NJTSSWG =     20 
   NJTSSWGD =     20 
   VTSS =     10 V
   VTSD =     10 V
   VTSSWS =     10 V
   VTSSWD =     10 V
   VTSSWGS =     10 V
   VTSSWGD =     10 V
   LINTIGEN =      0 m
   NTGEN =      1 
   AIGEN =      0 m^-3V^-1
   BIGEN =      0 m^-3V^-3
   XRCRG1 =     12 
   XRCRG2 =      1 
   NSEG = 5 
   EF =      1 
   EM = 4.1e+07 V/m
   NOIA = 6.25e+39 eV^-1s^1-EFm^-3
   NOIB = 3.125e+24 eV^-1s^1-EFm^-1
   NOIC = 8.75e+07 eV^-1s^1-EFm
   NTNOI =      1 
   TNOM =  300.1 K
   TBGASUB = 0.000702 eV/K
   TBGBSUB =   1108 K
   KT1 =      0 V
   KT1L =      0 Vm
   IIT =   -0.5 
   TII =      0 
   TGIDL = -0.0003 K^-1
   IGT =    2.5 
   TCJ =      0 K^-1
   TCJSW =      0 K^-1
   TCJSWG =      0 K^-1
   TPB =      0 K^-1
   TPBSW =      0 K^-1
   TPBSWG =      0 K^-1
   XTIS =      3 
   XTID =      3 
   XTSS =   0.02 
   XTSD =   0.02 
   XTSSWS =   0.02 
   XTSSWD =   0.02 
   XTSSWGS =   0.02 
   XTSSWGD =   0.02 
   TNJTS =      0 
   TNJTSD =      0 
   TNJTSSW =      0 
   TNJTSSWD =      0 
   TNJTSSWG =      0 
   TNJTSSWGD =      0 
   RTH0 =   0.01 ohm
   CTH0 =  1e-05 F
   WTH0 =      0 m
   LNBODY =      0 
   NNBODY =      0 
   PNBODY =      0 
   LPHIG =      0 
   NPHIG =      0 
   PPHIG =      0 
   LNGATE =      0 
   NNGATE =      0 
   PNGATE =      0 
   LCIT =      0 
   NCIT =      0 
   PCIT =      0 
   LCDSC =      0 
   NCDSC =      0 
   PCDSC =      0 
   LCDSCD =      0 
   NCDSCD =      0 
   PCDSCD =      0 
   LCDSCDR =      0 
   NCDSCDR =      0 
   PCDSCDR =      0 
   LDVT0 =      0 
   NDVT0 =      0 
   PDVT0 =      0 
   LDVT1 =      0 
   NDVT1 =      0 
   PDVT1 =      0 
   LPHIN =      0 
   NPHIN =      0 
   PPHIN =      0 
   LETA0 =      0 
   NETA0 =      0 
   PETA0 =      0 
   LETA0R =      0 
   NETA0R =      0 
   PETA0R =      0 
   LDSUB =      0 
   NDSUB =      0 
   PDSUB =      0 
   LK1RSCE =      0 
   NK1RSCE =      0 
   PK1RSCE =      0 
   LLPE0 =      0 
   NLPE0 =      0 
   PLPE0 =      0 
   LQMFACTOR =      0 
   NQMFACTOR =      0 
   PQMFACTOR =      0 
   LQMTCENIV =      0 
   NQMTCENIV =      0 
   PQMTCENIV =      0 
   LQMTCENCV =      0 
   NQMTCENCV =      0 
   PQMTCENCV =      0 
   LVSAT =      0 
   NVSAT =      0 
   PVSAT =      0 
   LKSATIV =      0 
   NKSATIV =      0 
   PKSATIV =      0 
   LMEXP =      0 
   NMEXP =      0 
   PMEXP =      0 
   LPTWG =      0 
   NPTWG =      0 
   PPTWG =      0 
   LTHETASAT =      0 
   NTHETASAT =      0 
   PTHETASAT =      0 
   LU0 =      0 
   NU0 =      0 
   PU0 =      0 
   LUP =      0 
   NUP =      0 
   PUP =      0 
   LUA =      0 
   NUA =      0 
   PUA =      0 
   LEU =      0 
   NEU =      0 
   PEU =      0 
   LUD =      0 
   NUD =      0 
   PUD =      0 
   LUCS =      0 
   NUCS =      0 
   PUCS =      0 
   LPCLM =      0 
   NPCLM =      0 
   PPCLM =      0 
   LPCLMCV =      0 
   NPCLMCV =      0 
   PPCLMCV =      0 
   LRDSW =      0 
   NRDSW =      0 
   PRDSW =      0 
   LRSW =      0 
   NRSW =      0 
   PRSW =      0 
   LRDW =      0 
   NRDW =      0 
   PRDW =      0 
   LPRWG =      0 
   NPRWG =      0 
   PPRWG =      0 
   LWR =      0 
   NWR =      0 
   PWR =      0 
   LPDIBL1 =      0 
   NPDIBL1 =      0 
   PPDIBL1 =      0 
   LPDIBL2 =      0 
   NPDIBL2 =      0 
   PPDIBL2 =      0 
   LDROUT =      0 
   NDROUT =      0 
   PDROUT =      0 
   LPVAG =      0 
   NPVAG =      0 
   PPVAG =      0 
   LAIGBINV =      0 
   NAIGBINV =      0 
   PAIGBINV =      0 
   LBIGBINV =      0 
   NBIGBINV =      0 
   PBIGBINV =      0 
   LCIGBINV =      0 
   NCIGBINV =      0 
   PCIGBINV =      0 
   LEIGBINV =      0 
   NEIGBINV =      0 
   PEIGBINV =      0 
   LNIGBINV =      0 
   NNIGBINV =      0 
   PNIGBINV =      0 
   LAIGC =      0 
   NAIGC =      0 
   PAIGC =      0 
   LBIGC =      0 
   NBIGC =      0 
   PBIGC =      0 
   LCIGC =      0 
   NCIGC =      0 
   PCIGC =      0 
   LNIGC =      0 
   NNIGC =      0 
   PNIGC =      0 
   LAIGS =      0 
   NAIGS =      0 
   PAIGS =      0 
   LBIGS =      0 
   NBIGS =      0 
   PBIGS =      0 
   LCIGS =      0 
   NCIGS =      0 
   PCIGS =      0 
   LAIGD =      0 
   NAIGD =      0 
   PAIGD =      0 
   LBIGD =      0 
   NBIGD =      0 
   PBIGD =      0 
   LCIGD =      0 
   NCIGD =      0 
   PCIGD =      0 
   LPOXEDGE =      0 
   NPOXEDGE =      0 
   PPOXEDGE =      0 
   LAGIDL =      0 
   NAGIDL =      0 
   PAGIDL =      0 
   LBGIDL =      0 
   NBGIDL =      0 
   PBGIDL =      0 
   LEGIDL =      0 
   NEGIDL =      0 
   PEGIDL =      0 
   LAGISL =      0 
   NAGISL =      0 
   PAGISL =      0 
   LBGISL =      0 
   NBGISL =      0 
   PBGISL =      0 
   LEGISL =      0 
   NEGISL =      0 
   PEGISL =      0 
   LALPHA0 =      0 
   NALPHA0 =      0 
   PALPHA0 =      0 
   LALPHA1 =      0 
   NALPHA1 =      0 
   PALPHA1 =      0 
   LBETA0 =      0 
   NBETA0 =      0 
   PBETA0 =      0 
   LALPHAII =      0 
   NALPHAII =      0 
   PALPHAII =      0 
   LBETAII0 =      0 
   NBETAII0 =      0 
   PBETAII0 =      0 
   LBETAII1 =      0 
   NBETAII1 =      0 
   PBETAII1 =      0 
   LBETAII2 =      0 
   NBETAII2 =      0 
   PBETAII2 =      0 
   LESATII =      0 
   NESATII =      0 
   PESATII =      0 
   LLII =      0 
   NLII =      0 
   PLII =      0 
   LSII0 =      0 
   NSII0 =      0 
   PSII0 =      0 
   LSII1 =      0 
   NSII1 =      0 
   PSII1 =      0 
   LSII2 =      0 
   NSII2 =      0 
   PSII2 =      0 
   LSIID =      0 
   NSIID =      0 
   PSIID =      0 
   LCFS =      0 
   NCFS =      0 
   PCFS =      0 
   LCFD =      0 
   NCFD =      0 
   PCFD =      0 
   LCOVS =      0 
   NCOVS =      0 
   PCOVS =      0 
   LCOVD =      0 
   NCOVD =      0 
   PCOVD =      0 
   LCGSL =      0 
   NCGSL =      0 
   PCGSL =      0 
   LCGDL =      0 
   NCGDL =      0 
   PCGDL =      0 
   LCKAPPAS =      0 
   NCKAPPAS =      0 
   PCKAPPAS =      0 
   LCKAPPAD =      0 
   NCKAPPAD =      0 
   PCKAPPAD =      0 
   LCGBL =      0 
   NCGBL =      0 
   PCGBL =      0 
   LCKAPPAB =      0 
   NCKAPPAB =      0 
   PCKAPPAB =      0 
   LNTGEN =      0 
   NNTGEN =      0 
   PNTGEN =      0 
   LAIGEN =      0 
   NAIGEN =      0 
   PAIGEN =      0 
   LBIGEN =      0 
   NBIGEN =      0 
   PBIGEN =      0 
   LXRCRG1 =      0 
   NXRCRG1 =      0 
   PXRCRG1 =      0 
   LXRCRG2 =      0 
   NXRCRG2 =      0 
   PXRCRG2 =      0 
   LINTNOI =      0 
   NINTNOI =      0 
   PINTNOI =      0 
   LUTE =      0 
   NUTE =      0 
   PUTE =      0 
   LUTL =      0 
   NUTL =      0 
   PUTL =      0 
   LUA1 =      0 
   NUA1 =      0 
   PUA1 =      0 
   LUD1 =      0 
   NUD1 =      0 
   PUD1 =      0 
   LUCSTE =      0 
   NUCSTE =      0 
   PUCSTE =      0 
   LPTWGT =      0 
   NPTWGT =      0 
   PPTWGT =      0 
   LAT =      0 
   NAT =      0 
   PAT =      0 
   LSTTHETASAT =      0 
   NSTTHETASAT =      0 
   PSTTHETASAT =      0 
   LPRT =      0 
   NPRT =      0 
   PPRT =      0 
   LIIT =      0 
   NIIT =      0 
   PIIT =      0 
   LTII =      0 
   NTII =      0 
   PTII =      0 
   LTGIDL =      0 
   NTGIDL =      0 
   PTGIDL =      0 
   LIGT =      0 
   NIGT =      0 
   PIGT =      0 
   L = 1.4e-08 m
   D =  4e-08 m
   TFIN =  8e-09 m
   FPITCH = 2.8e-08 m
   NF = 1 
   NFIN = 1 
   NGCON = 1 
   ASEO =      0 m^2
   ADEO =      0 m^2
   PSEO =      0 m
   PDEO =      0 m
   ASEJ =      0 m^2
   ADEJ =      0 m^2
   PSEJ =      0 m
   PDEJ =      0 m
   CGSP =      0 F
   CGDP =      0 F
   CDSP =      0 F
   NRS =      0 
   NRD =      0 
   LRSD = 1.4e-08 m
   XL =      0 m
   DELVTRAND =      0 
   U0MULT =      1 
   IDS0MULT =      1 
   Lmin =  1e-08 m
   Lmax =  3e-08 m
   NFINmin = 0 
   NFINmax = 1 
   LVSAT1 =      0 
   NVSAT1 =      0 
   PVSAT1 =      0 
   LETAMOB =      0 
   NETAMOB =      0 
   PETAMOB =      0 
   LPCLMG =      0 
   NPCLMG =      0 
   PPCLMG =      0 
   LVASAT =      0 
   NVASAT =      0 
   PVASAT =      0 
   LAIGBACC =      0 
   NAIGBACC =      0 
   PAIGBACC =      0 
   LBIGBACC =      0 
   NBIGBACC =      0 
   PBIGBACC =      0 
   LCIGBACC =      0 
   NCIGBACC =      0 
   PCIGBACC =      0 
   LNIGBACC =      0 
   NNIGBACC =      0 
   PNIGBACC =      0 
  **info** (ptm10lstp.sp:15) DC voltage reset to initial transient source value              in source        0:vin_0               new dc=  0.7500D+00
  
      
 **info** set option symb=1 internally to help for convergence.
 *****************************************************************
 ******  option summary
 ******
 runlvl  = 3         bypass  = 2         
  Opening plot unit= 15
 file=ptm10lstp.pa0                                                            

1****** HSPICE -- F-2011.09-SP2 64-BIT (Feb 27 2012) linux ******               
 ******  
 $ netlist of inverter

  ******  operating point information tnom=  25.000 temp=  25.000 *****
 ***** operating point status is voltage   simulation time is     0.     
     node    =voltage       node    =voltage       node    =voltage

 + 0:inb_0   = 750.0000m  0:inb_1   = 750.0000m  0:outb_00 = 749.9974m
 + 0:outb_10 = 749.9974m  0:outin_00=   3.2808u  0:outin_01=   3.2808u
 + 0:outin_10= 749.9974m  0:outin_11= 749.9974m  0:outin_20=   3.2810u
 + 0:outin_21=   3.2810u  0:vdd     = 750.0000m

 ******  
 $ netlist of inverter

  ******  transient analysis tnom=  25.000 temp=  25.000 *****
 inv_avg_power00= 248.8280u  from=   0.          to=   4.0000n
 peakpower00=   3.8269m    at=   3.5050n
             from=   0.         to=   4.0000n
 inv_avg_power10= 376.3561u  from=   0.          to=   4.0000n
 peakpower10=   4.6354m    at=   2.5925n
             from=   0.         to=   4.0000n
 inv_avg_power01= 186.9616u  from=   0.          to=   4.0000n
 peakpower01=   4.3882m    at=   2.7600n
             from=   0.         to=   4.0000n
 inv_avg_power11= 227.6712u  from=   0.          to=   4.0000n
 peakpower11=   2.8262m    at=   2.9125n
             from=   0.         to=   4.0000n
 model_uut_grid_avg_power=   1.0398m  from=   0.          to=   4.0000n
 model_uut_grid_max_power=   8.3766m    at=   2.5925n
             from=   0.         to=   4.0000n
 source_power=   1.4388m  from=   0.          to=   4.0000n
 trf_delay_001=   4.5532p  targ=  36.3804p   trig=  31.8272p
 tfr_delay_001=   4.4725p  targ=   1.0859n   trig=   1.0815n
 trf_delay_002=   4.3814p  targ=   2.0351n   trig=   2.0307n
 tfr_delay_002= -11.2088p  targ=   2.0513n   trig=   2.0625n
 trf_delay_101=   2.9032p  targ=   1.0888n   trig=   1.0859n
 tfr_delay_101=   3.1238p  targ=  39.5042p   trig=  36.3804p
 trf_delay_102=   1.0335n  targ=   3.0847n   trig=   2.0513n
 tfr_delay_102=   4.1157p  targ=   2.0392n   trig=   2.0351n
 trf_delay_011=   4.5532p  targ=  36.3804p   trig=  31.8272p
 tfr_delay_011=   2.9255p  targ=   2.0827n   trig=   2.0798n
 trf_delay_111= -58.7891f  targ=   2.0826n   trig=   2.0827n
 tfr_delay_111=   3.1238p  targ=  39.5042p   trig=  36.3804p
x

        time    voltage      voltage    
                 outin_00     outin_10  
    0.            3.2808u    749.9974m  
   10.00000p     -2.2270m    750.0254m  
   20.00000p     24.3286m    750.8417m  
   30.00000p    296.2854m    754.9021m  
   40.00000p    714.6633m     50.1271m  
   50.00000p    747.1743m    383.0188u  
   60.00000p    749.9992m     24.5121u  
   70.00000p    749.9940m    -15.1556u  
   80.00000p    749.9964m     -2.7987u  
   90.00000p    749.9988m      9.5581u  
  100.00000p    750.0011m     21.2762u  
  110.00000p    749.9999m     15.7054u  
  120.00000p    749.9987m     10.1347u  
  130.00000p    749.9976m      4.5639u  
  140.00000p    749.9964m     -1.0068u  
  150.00000p    749.9952m     -6.5775u  
  160.00000p    749.9941m    -12.1483u  
  170.00000p    749.9938m    -13.2733u  
  180.00000p    749.9943m    -10.9735u  
  190.00000p    749.9948m     -8.6737u  
  200.00000p    749.9953m     -6.3738u  
  210.00000p    749.9958m     -4.0740u  
  220.00000p    749.9963m     -1.7742u  
  230.00000p    749.9968m    525.6361n  
  240.00000p    749.9973m      2.8255u  
  250.00000p    749.9978m      5.1253u  
  260.00000p    749.9983m      7.4251u  
  270.00000p    749.9988m      9.7249u  
  280.00000p    749.9993m     12.0248u  
  290.00000p    749.9998m     14.3246u  
  300.00000p    750.0003m     16.6244u  
  310.00000p    750.0008m     18.9242u  
  320.00000p    750.0012m     20.8188u  
  330.00000p    750.0008m     19.0527u  
  340.00000p    750.0004m     17.2866u  
  350.00000p    750.0000m     15.5204u  
  360.00000p    749.9996m     13.7543u  
  370.00000p    749.9993m     11.9882u  
  380.00000p    749.9989m     10.2221u  
  390.00000p    749.9985m      8.4560u  
  400.00000p    749.9981m      6.6898u  
  410.00000p    749.9977m      4.9237u  
  420.00000p    749.9973m      3.1576u  
  430.00000p    749.9969m      1.3915u  
  440.00000p    749.9966m      0.       
  450.00000p    749.9962m     -2.1408u  
  460.00000p    749.9958m     -3.9069u  
  470.00000p    749.9954m     -5.6730u  
  480.00000p    749.9950m     -7.4391u  
  490.00000p    749.9946m     -9.2053u  
  500.00000p    749.9942m    -10.9714u  
  510.00000p    749.9938m    -12.7375u  
  520.00000p    749.9935m    -14.1526u  
  530.00000p    749.9939m    -12.3971u  
  540.00000p    749.9943m    -10.6416u  
  550.00000p    749.9947m     -8.8861u  
  560.00000p    749.9951m     -7.1306u  
  570.00000p    749.9955m     -5.3751u  
  580.00000p    749.9959m     -3.6196u  
  590.00000p    749.9963m     -1.8641u  
  600.00000p    749.9967m      0.       
  610.00000p    749.9970m      1.6469u  
  620.00000p    749.9974m      3.4025u  
  630.00000p    749.9978m      5.1580u  
  640.00000p    749.9982m      6.9135u  
  650.00000p    749.9986m      8.6690u  
  660.00000p    749.9990m     10.4245u  
  670.00000p    749.9994m     12.1800u  
  680.00000p    749.9998m     13.9355u  
  690.00000p    750.0002m     15.6910u  
  700.00000p    750.0006m     17.4465u  
  710.00000p    750.0009m     19.2021u  
  720.00000p    750.0013m     20.6087u  
  730.00000p    750.0009m     18.8636u  
  740.00000p    750.0005m     17.1185u  
  750.00000p    750.0001m     15.3735u  
  760.00000p    749.9997m     13.6284u  
  770.00000p    749.9993m     11.8833u  
  780.00000p    749.9989m     10.1382u  
  790.00000p    749.9985m      8.3932u  
  800.00000p    749.9981m      6.6481u  
  810.00000p    749.9977m      4.9030u  
  820.00000p    749.9973m      3.1580u  
  830.00000p    749.9969m      1.4129u  
  840.00000p    749.9965m      0.       
  850.00000p    749.9961m     -2.0773u  
  860.00000p    749.9958m     -3.8223u  
  870.00000p    749.9954m     -5.5674u  
  880.00000p    749.9950m     -7.3125u  
  890.00000p    749.9946m     -9.0575u  
  900.00000p    749.9942m    -10.8026u  
  910.00000p    749.9938m    -12.5477u  
  920.00000p    749.9935m    -13.8553u  
  930.00000p    749.9941m    -11.2108u  
  940.00000p    749.9947m     -8.5664u  
  950.00000p    749.9953m     -5.9220u  
  960.00000p    749.9959m     -3.2775u  
  970.00000p    749.9965m   -633.0825n  
  980.00000p    749.9971m      2.0114u  
  990.00000p    749.9977m      4.6558u  
    1.00000n    749.9983m      7.3002u  
    1.01000n    749.9989m      9.9447u  
    1.02000n    749.9996m     12.5891u  
    1.03000n    750.0002m     15.2335u  
    1.04000n    750.0008m     17.8780u  
    1.05000n    750.0014m     20.5224u  
    1.06000n    753.1978m      1.4592u  
    1.07000n    648.0118m     -2.2767m  
    1.08000n    439.1973m    104.9554m  
    1.09000n     30.7853m    670.3365m  
    1.10000n      2.2080m    750.2029m  
    1.11000n      5.4985u    749.9901m  
    1.12000n      2.7618u    750.0050m  
    1.13000n      2.9119u    749.9778m  
    1.14000n      3.1832u    749.9849m  
    1.15000n      3.4716u    749.9969m  
    1.16000n      3.7600u    750.0089m  
    1.17000n      4.0103u    750.0196m  
    1.18000n      3.8084u    750.0141m  
    1.19000n      3.6064u    750.0086m  
    1.20000n      3.4045u    750.0032m  
    1.21000n      3.2026u    749.9977m  
    1.22000n      3.0006u    749.9922m  
    1.23000n      2.7987u    749.9867m  
    1.24000n      2.5967u    749.9812m  
    1.25000n      2.3948u    749.9758m  
    1.26000n      2.4554u    749.9771m  
    1.27000n      2.5678u    749.9797m  
    1.28000n      2.6803u    749.9823m  
    1.29000n      2.7928u    749.9850m  
    1.30000n      2.9053u    749.9876m  
    1.31000n      3.0177u    749.9902m  
    1.32000n      3.1302u    749.9929m  
    1.33000n      3.2427u    749.9955m  
    1.34000n      3.3552u    749.9981m  
    1.35000n      3.4676u    750.0008m  
    1.36000n      3.5801u    750.0034m  
    1.37000n      3.6926u    750.0060m  
    1.38000n      3.8051u    750.0087m  
    1.39000n      3.9175u    750.0113m  
    1.40000n      4.0300u    750.0139m  
    1.41000n      4.1425u    750.0166m  
    1.42000n      4.2550u    750.0192m  
    1.43000n      4.2019u    750.0181m  
    1.44000n      4.0984u    750.0159m  
    1.45000n      3.9949u    750.0136m  
    1.46000n      3.8914u    750.0114m  
    1.47000n      3.7879u    750.0091m  
    1.48000n      3.6843u    750.0069m  
    1.49000n      3.5808u    750.0047m  
    1.50000n      3.4773u    750.0024m  
    1.51000n      3.3738u    750.0002m  
    1.52000n      3.2702u    749.9979m  
    1.53000n      3.1667u    749.9957m  
    1.54000n      3.0632u    749.9934m  
    1.55000n      2.9597u    749.9912m  
    1.56000n      2.8562u    749.9890m  
    1.57000n      2.7526u    749.9867m  
    1.58000n      2.6491u    749.9845m  
    1.59000n      2.5456u    749.9822m  
    1.60000n      2.4421u    749.9800m  
    1.61000n      2.3386u    749.9777m  
    1.62000n      2.2350u    749.9755m  
    1.63000n      2.2954u    749.9767m  
    1.64000n      2.4058u    749.9789m  
    1.65000n      2.5162u    749.9812m  
    1.66000n      2.6266u    749.9834m  
    1.67000n      2.7370u    749.9856m  
    1.68000n      2.8474u    749.9879m  
    1.69000n      2.9577u    749.9901m  
    1.70000n      3.0681u    749.9923m  
    1.71000n      3.1785u    749.9946m  
    1.72000n      3.2889u    749.9968m  
    1.73000n      3.3993u    749.9991m  
    1.74000n      3.5097u    750.0013m  
    1.75000n      3.6201u    750.0035m  
    1.76000n      3.7305u    750.0058m  
    1.77000n      3.8409u    750.0080m  
    1.78000n      3.9512u    750.0102m  
    1.79000n      4.0616u    750.0125m  
    1.80000n      4.1720u    750.0147m  
    1.81000n      4.2824u    750.0169m  
    1.82000n      4.3928u    750.0192m  
    1.83000n      4.3172u    750.0178m  
    1.84000n      4.1848u    750.0153m  
    1.85000n      4.0525u    750.0128m  
    1.86000n      3.9201u    750.0103m  
    1.87000n      3.7878u    750.0077m  
    1.88000n      3.6554u    750.0052m  
    1.89000n      3.5231u    750.0027m  
    1.90000n      3.3907u    750.0002m  
    1.91000n      3.2584u    749.9977m  
    1.92000n      3.1260u    749.9952m  
    1.93000n      2.9937u    749.9927m  
    1.94000n      2.8613u    749.9902m  
    1.95000n      2.7290u    749.9877m  
    1.96000n      2.5966u    749.9851m  
    1.97000n      2.4643u    749.9826m  
    1.98000n      2.3319u    749.9801m  
    1.99000n      2.1995u    749.9776m  
    2.00000n      2.0672u    749.9751m  
    2.01000n     -2.5001m    749.9957m  
    2.02000n     92.3476m    749.7621m  
    2.03000n    350.8908m    696.2323m  
    2.04000n    696.0374m     90.2593m  
    2.05000n    754.9765m    209.7299m  
    2.06000n      2.1710    -841.0965m  
    2.07000n    762.1722m   -555.6062m  
    2.08000n    767.4258m    342.0825m  
    2.09000n    760.1415m    922.2521m  
    2.10000n    741.2894m    762.0075m  
    2.11000n    740.9388m    211.7606m  
    2.12000n    724.6486m   -790.1464m  
    2.13000n      1.2123      -1.6205   
    2.14000n      2.1317      -1.5567   
    2.15000n      2.6053      -1.2902   
    2.16000n      2.6499    -926.2886m  
    2.17000n      2.6335    -377.7456m  
    2.18000n      2.5486     321.4605m  
    2.19000n      2.9703     146.7603m  
    2.20000n      3.0654    -818.7506m  
    2.21000n      2.2496      -1.6063   
    2.22000n      1.3805      -2.2126   
    2.23000n    579.8023m     -2.3772   
    2.24000n    217.6299m     -2.1563   
    2.25000n    282.9379m     -1.7704   
    2.26000n    755.1199m     -1.2588   
    2.27000n      1.9218      -1.3396   
    2.28000n      2.4612      -1.9521   
    2.29000n      1.9615      -2.3944   
    2.30000n      1.4731      -2.5010   
    2.31000n    954.3236m     -2.3027   
    2.32000n    397.0263m     -1.9971   
    2.33000n    684.4850m     -1.5303   
    2.34000n      2.1014      -1.0325   
    2.35000n      3.1118    -426.0353m  
    2.36000n      2.6622      -1.0400   
    2.37000n      2.0138      -1.9924   
    2.38000n      2.0069      -1.6117   
    2.39000n      2.0169    -990.4488m  
    2.40000n      1.9354    -293.6357m  
    2.41000n      1.3446      21.9933m  
    2.42000n    778.4284m   -129.3317m  
    2.43000n    749.4993m   -250.5865m  
    2.44000n    752.1236m   -157.5234m  
    2.45000n      1.5583     374.7963m  
    2.46000n      2.7630     470.9053m  
    2.47000n      3.0816    -132.7663m  
    2.48000n      2.8733    -729.3197m  
    2.49000n      2.6122      -1.2533   
    2.50000n      2.3784      -1.5794   
    2.51000n      2.1304      -1.7196   
    2.52000n      1.7679      -1.7671   
    2.53000n      1.2235      -1.7523   
    2.54000n    825.2245m     -1.4434   
    2.55000n      1.7601      -1.2919   
    2.56000n      2.7425      -1.4441   
    2.57000n      2.5037      -1.1753   
    2.58000n      1.9981    -600.9990m  
    2.59000n    902.4795m    -77.6727m  
    2.60000n      2.8751    -830.3043m  
    2.61000n      3.1037    -152.7296m  
    2.62000n      2.9199      -9.6659m  
    2.63000n      2.5132      48.4299m  
    2.64000n      1.8094    -258.8397m  
    2.65000n      1.1286      -1.0446   
    2.66000n      1.6417      -1.3162   
    2.67000n      2.1172      -1.4777   
    2.68000n      2.4387      -1.5932   
    2.69000n      2.4251      -1.6436   
    2.70000n      2.3146      -1.6055   
    2.71000n      2.0717      -1.2475   
    2.72000n      1.9623     -56.2079m  
    2.73000n    813.8502m    -43.5772m  
    2.74000n    747.5280m    -96.2344m  
    2.75000n    733.4954m   -913.3549m  
    2.76000n    938.1917m     -1.4024   
    2.77000n      1.2866      -1.5501   
    2.78000n      1.5466      -1.6546   
    2.79000n      1.6347      -1.6371   
    2.80000n      1.5017      -1.6726   
    2.81000n      1.5565      -1.0749   
    2.82000n      1.7513     -43.3217m  
    2.83000n    994.8850m    -14.4415m  
    2.84000n      1.7486      -1.8732   
    2.85000n      2.1931      -2.5497   
    2.86000n      2.0755      -2.5433   
    2.87000n      1.7921      -2.3605   
    2.88000n      1.4379      -1.9622   
    2.89000n      1.0600      -1.3994   
    2.90000n      2.0480      -1.6427   
    2.91000n      2.2747      -2.0705   
    2.92000n      2.0360      -2.3834   
    2.93000n      1.7561      -2.4578   
    2.94000n      1.4114      -2.3812   
    2.95000n    956.5214m     -2.1449   
    2.96000n    496.4516m     -1.7657   
    2.97000n      2.2079      -1.2393   
    2.98000n      3.0949    -305.7027m  
    2.99000n      2.7676    -449.5733m  
    3.00000n      2.0769    -935.2296m  
    3.01000n      1.3371      -1.2008   
    3.02000n      1.4130      -1.2505   
    3.03000n      1.6737      -1.2123   
    3.04000n      1.8187      -1.1054   
    3.05000n      1.7689    -918.0789m  
    3.06000n      1.4616    -619.6262m  
    3.07000n      1.0633    -250.6708m  
    3.08000n    524.3352m    220.7737m  
    3.09000n   -683.9626m    588.8709m  
    3.10000n     -2.2362       1.2828   
    3.11000n     -1.0503       2.0586   
    3.12000n   -609.9006m      1.9741   
    3.13000n   -471.4951m      1.8385   
    3.14000n   -201.0141m      1.6306   
    3.15000n   -824.7390m      1.5012   
    3.16000n     -1.9036       1.5077   
    3.17000n     -2.0242       1.7995   
    3.18000n     -1.8427       1.9908   
    3.19000n     -1.7242       1.8065   
    3.20000n     -1.4538       1.5738   
    3.21000n     -1.0464       1.2666   
    3.22000n   -449.1152m    940.8628m  
    3.23000n   -755.5164m      2.2620   
    3.24000n     -1.9171       2.9000   
    3.25000n     -2.1972       2.0158   
    3.26000n     -1.7317       1.8639   
    3.27000n     -1.1814       1.6487   
    3.28000n   -790.1967m      1.4446   
    3.29000n   -433.8961m     71.5118m  
    3.30000n    484.4422m     -2.5229   
    3.31000n      1.2835      -3.9276   
    3.32000n      1.2404      -3.8918   
    3.33000n    956.6382m     -3.4791   
    3.34000n    992.4876m     -2.5507   
    3.35000n      1.4282    -888.0401m  
    3.36000n    982.0866m    321.3792m  
    3.37000n   -856.6428m    619.2696m  
    3.38000n     -2.2373     717.6332m  
    3.39000n     -2.4946     726.5672m  
    3.40000n     -2.3595     740.3996m  
    3.41000n     -2.0904     738.1567m  
    3.42000n     -1.9068     386.5794m  
    3.43000n     -1.2925     937.5159m  
    3.44000n   -441.2342m      1.9413   
    3.45000n   -400.6122m      2.1220   
    3.46000n   -772.6186m      2.2368   
    3.47000n   -966.4201m      2.3754   
    3.48000n     -1.6640       1.3060   
    3.49000n     -3.0682      -1.9461   
    3.50000n     -3.7527      -3.9769   
    3.51000n     -3.4999      -3.6930   
    3.52000n     -2.9231      -2.8123   
    3.53000n     -2.9413      -1.1757   
    3.54000n     -3.1896    -251.0971m  
    3.55000n     -2.7555    -346.7757m  
    3.56000n     -2.0800    -379.7969m  
    3.57000n   -871.0480m     95.6868m  
    3.58000n    -32.0941m    523.4150m  
    3.59000n     -1.5047       1.2387   
    3.60000n     -2.4266       2.0844   
    3.61000n     -1.8694       2.2263   
    3.62000n     -1.7677       2.4282   
    3.63000n     -1.5922       2.3967   
    3.64000n     -1.4420       1.9442   
    3.65000n     -1.2414       1.2318   
    3.66000n   -560.8593m    809.4492m  
    3.67000n     -1.2945     825.2006m  
    3.68000n     -2.5058     859.8143m  
    3.69000n     -2.2052       1.0510   
    3.70000n     -1.7638       1.3454   
    3.71000n     -1.2293       1.5662   
    3.72000n   -598.2536m      1.7218   
    3.73000n     -1.0007       1.8379   
    3.74000n     -1.8466       1.8897   
    3.75000n     -1.9253       1.9764   
    3.76000n     -1.8627       1.6178   
    3.77000n     -1.6451     791.8024m  
    3.78000n     -1.0559     735.3495m  
    3.79000n   -541.0595m    687.3374m  
    3.80000n   -282.9582m    695.5295m  
    3.81000n     -1.2102     925.4473m  
    3.82000n     -1.8934       1.2681   
    3.83000n     -2.1602       1.5528   
    3.84000n     -1.9908       1.7854   
    3.85000n     -1.7422       1.9515   
    3.86000n     -1.3286       2.0611   
    3.87000n   -960.0247m      1.9815   
    3.88000n     -1.4209       1.3441   
    3.89000n     -2.1856       1.3675   
    3.90000n     -2.0883       1.5370   
    3.91000n     -1.9011       1.6602   
    3.92000n     -1.5765       1.6946   
    3.93000n     -1.1221       1.6522   
    3.94000n   -570.2242m      1.5605   
    3.95000n   -681.3379m    995.8588m  
    3.96000n     -2.5910     -90.3003m  
    3.97000n     -2.3225       1.1136   
    3.98000n     -1.6808       2.2943   
    3.99000n     -1.2141       2.8264   
    4.00000n   -676.5167m      3.0457   
y
x

        time    voltage      voltage    
                 outin_10     outin_20  
    0.          749.9974m      3.2810u  
   10.00000p    750.0254m      5.2371u  
   20.00000p    750.8417m     23.4896u  
   30.00000p    754.9021m    -84.9682u  
   40.00000p     50.1271m    460.9992m  
   50.00000p    383.0188u    750.8427m  
   60.00000p     24.5121u    750.0134m  
   70.00000p    -15.1556u    749.9809m  
   80.00000p     -2.7987u    749.9922m  
   90.00000p      9.5581u    750.0035m  
  100.00000p     21.2762u    750.0143m  
  110.00000p     15.7054u    750.0090m  
  120.00000p     10.1347u    750.0037m  
  130.00000p      4.5639u    749.9984m  
  140.00000p     -1.0068u    749.9931m  
  150.00000p     -6.5775u    749.9879m  
  160.00000p    -12.1483u    749.9826m  
  170.00000p    -13.2733u    749.9815m  
  180.00000p    -10.9735u    749.9837m  
  190.00000p     -8.6737u    749.9860m  
  200.00000p     -6.3738u    749.9882m  
  210.00000p     -4.0740u    749.9904m  
  220.00000p     -1.7742u    749.9926m  
  230.00000p    525.6361n    749.9948m  
  240.00000p      2.8255u    749.9970m  
[...]
    3.64000n      3.2808u    749.9974m  
    3.65000n      3.2808u    749.9974m  
    3.66000n      3.2808u    749.9974m  
    3.67000n      3.2808u    749.9974m  
    3.68000n      3.2808u    749.9974m  
    3.69000n      3.2808u    749.9974m  
    3.70000n      3.2808u    749.9974m  
    3.71000n      3.2808u    749.9974m  
    3.72000n      3.2808u    749.9974m  
    3.73000n      3.2808u    749.9974m  
    3.74000n      3.2808u    749.9974m  
    3.75000n      3.2808u    749.9974m  
    3.76000n      3.2808u    749.9974m  
    3.77000n      3.2808u    749.9974m  
    3.78000n      3.2808u    749.9974m  
    3.79000n      3.2808u    749.9974m  
    3.80000n      3.2808u    749.9974m  
    3.81000n      3.2808u    749.9974m  
    3.82000n      3.2808u    749.9974m  
    3.83000n      3.2808u    749.9974m  
    3.84000n      3.2808u    749.9974m  
    3.85000n      3.2808u    749.9974m  
    3.86000n      3.2808u    749.9974m  
    3.87000n      3.2808u    749.9974m  
    3.88000n      3.2808u    749.9974m  
    3.89000n      3.2808u    749.9974m  
    3.90000n      3.2808u    749.9974m  
    3.91000n      3.2808u    749.9974m  
    3.92000n      3.2808u    749.9974m  
    3.93000n      3.2808u    749.9974m  
    3.94000n      3.2808u    749.9974m  
    3.95000n      3.2808u    749.9974m  
    3.96000n      3.2808u    749.9974m  
    3.97000n      3.2808u    749.9974m  
    3.98000n      3.2808u    749.9974m  
    3.99000n      3.2808u    749.9974m  
    4.00000n      3.2808u    749.9974m  
y
x

        time    voltage      voltage    
                 outin_11     outin_21  
    0.          749.9974m      3.2810u  
   10.00000p    750.0254m      5.2371u  
   20.00000p    750.8417m     23.4896u  
   30.00000p    754.9021m    -84.9682u  
   40.00000p     50.1271m    460.9992m  
   50.00000p    383.0188u    750.8427m  
   60.00000p     24.5121u    750.0134m  
   70.00000p    -15.1556u    749.9809m  
   80.00000p     -2.7987u    749.9922m  
   90.00000p      9.5581u    750.0035m  
  100.00000p     21.2762u    750.0143m  
  110.00000p     15.7054u    750.0090m  
  120.00000p     10.1347u    750.0037m  
  130.00000p      4.5639u    749.9984m  
  140.00000p     -1.0068u    749.9931m  
  150.00000p     -6.5775u    749.9879m  
  160.00000p    -12.1483u    749.9826m  
  170.00000p    -13.2733u    749.9815m  
  180.00000p    -10.9735u    749.9837m  
  190.00000p     -8.6737u    749.9860m  
  200.00000p     -6.3738u    749.9882m  
  210.00000p     -4.0740u    749.9904m  
  220.00000p     -1.7742u    749.9926m  
  230.00000p    525.6361n    749.9948m  
  240.00000p      2.8255u    749.9970m  
  250.00000p      5.1253u    749.9992m  
  260.00000p      7.4251u    750.0014m  
  270.00000p      9.7249u    750.0037m  
  280.00000p     12.0248u    750.0059m  
  290.00000p     14.3246u    750.0081m  
  300.00000p     16.6244u    750.0103m  
  310.00000p     18.9242u    750.0125m  
  320.00000p     20.8188u    750.0143m  
  330.00000p     19.0527u    750.0126m  
  340.00000p     17.2866u    750.0109m  
  350.00000p     15.5204u    750.0092m  
  360.00000p     13.7543u    750.0075m  
  370.00000p     11.9882u    750.0058m  
  380.00000p     10.2221u    750.0041m  
  390.00000p      8.4560u    750.0023m  
  400.00000p      6.6898u    750.0006m  
  410.00000p      4.9237u    749.9989m  
  420.00000p      3.1576u    749.9972m  
  430.00000p      1.3915u    749.9955m  
  440.00000p      0.         749.9938m  
  450.00000p     -2.1408u    749.9921m  
  460.00000p     -3.9069u    749.9904m  
  470.00000p     -5.6730u    749.9886m  
  480.00000p     -7.4391u    749.9869m  
  490.00000p     -9.2053u    749.9852m  
  500.00000p    -10.9714u    749.9835m  
  510.00000p    -12.7375u    749.9818m  
  520.00000p    -14.1526u    749.9804m  
  530.00000p    -12.3971u    749.9821m  
  540.00000p    -10.6416u    749.9838m  
  550.00000p     -8.8861u    749.9856m  
  560.00000p     -7.1306u    749.9873m  
  570.00000p     -5.3751u    749.9890m  
  580.00000p     -3.6196u    749.9907m  
  590.00000p     -1.8641u    749.9924m  
  600.00000p      0.         749.9941m  
  610.00000p      1.6469u    749.9958m  
  620.00000p      3.4025u    749.9976m  
  630.00000p      5.1580u    749.9993m  
  640.00000p      6.9135u    750.0010m  
  650.00000p      8.6690u    750.0027m  
  660.00000p     10.4245u    750.0044m  
  670.00000p     12.1800u    750.0061m  
  680.00000p     13.9355u    750.0078m  
  690.00000p     15.6910u    750.0096m  
  700.00000p     17.4465u    750.0113m  
  710.00000p     19.2021u    750.0130m  
  720.00000p     20.6087u    750.0144m  
  730.00000p     18.8636u    750.0126m  
  740.00000p     17.1185u    750.0109m  
  750.00000p     15.3735u    750.0092m  
  760.00000p     13.6284u    750.0075m  
  770.00000p     11.8833u    750.0058m  
  780.00000p     10.1382u    750.0041m  
  790.00000p      8.3932u    750.0024m  
  800.00000p      6.6481u    750.0006m  
  810.00000p      4.9030u    749.9989m  
  820.00000p      3.1580u    749.9972m  
  830.00000p      1.4129u    749.9955m  
  840.00000p      0.         749.9938m  
  850.00000p     -2.0773u    749.9921m  
  860.00000p     -3.8223u    749.9904m  
  870.00000p     -5.5674u    749.9886m  
  880.00000p     -7.3125u    749.9869m  
  890.00000p     -9.0575u    749.9852m  
  900.00000p    -10.8026u    749.9835m  
  910.00000p    -12.5477u    749.9818m  
  920.00000p    -13.8553u    749.9805m  
  930.00000p    -11.2108u    749.9831m  
  940.00000p     -8.5664u    749.9857m  
  950.00000p     -5.9220u    749.9884m  
  960.00000p     -3.2775u    749.9910m  
  970.00000p   -633.0825n    749.9936m  
  980.00000p      2.0114u    749.9962m  
  990.00000p      4.6558u    749.9988m  
    1.00000n      7.3002u    750.0015m  
    1.01000n      9.9447u    750.0041m  
    1.02000n     12.5891u    750.0067m  
    1.03000n     15.2335u    750.0093m  
    1.04000n     17.8780u    750.0119m  
    1.05000n     20.5224u    750.0145m  
    1.06000n      3.0428u    749.9973m  
    1.07000n      3.3493u    749.9974m  
    1.08000n      3.4305u    749.9974m  
    1.09000n      3.5379u    749.9975m  
    1.10000n      3.3308u    749.9975m  
    1.11000n      3.2808u    749.9974m  
    1.12000n      3.2814u    749.9974m  
    1.13000n      3.2802u    749.9974m  
    1.14000n      3.2805u    749.9974m  
    1.15000n      3.2811u    749.9974m  
    1.16000n      3.2816u    749.9974m  
    1.17000n      3.2821u    749.9974m  
    1.18000n      3.2818u    749.9974m  
    1.19000n      3.2816u    749.9974m  
    1.20000n      3.2813u    749.9974m  
    1.21000n      3.2811u    749.9974m  
    1.22000n      3.2808u    749.9974m  
    1.23000n      3.2806u    749.9974m  
    1.24000n      3.2803u    749.9974m  
    1.25000n      3.2801u    749.9974m  
    1.26000n      3.2802u    749.9974m  
    1.27000n      3.2803u    749.9974m  
    1.28000n      3.2804u    749.9974m  
    1.29000n      3.2805u    749.9974m  
    1.30000n      3.2806u    749.9974m  
    1.31000n      3.2808u    749.9974m  
    1.32000n      3.2809u    749.9974m  
    1.33000n      3.2810u    749.9974m  
    1.34000n      3.2811u    749.9974m  
    1.35000n      3.2812u    749.9974m  
    1.36000n      3.2813u    749.9974m  
    1.37000n      3.2815u    749.9974m  
    1.38000n      3.2816u    749.9974m  
    1.39000n      3.2817u    749.9974m  
    1.40000n      3.2818u    749.9974m  
    1.41000n      3.2819u    749.9974m  
    1.42000n      3.2821u    749.9974m  
    1.43000n      3.2820u    749.9974m  
    1.44000n      3.2819u    749.9974m  
    1.45000n      3.2818u    749.9974m  
    1.46000n      3.2817u    749.9974m  
    1.47000n      3.2816u    749.9974m  
    1.48000n      3.2815u    749.9974m  
    1.49000n      3.2814u    749.9974m  
    1.50000n      3.2813u    749.9974m  
    1.51000n      3.2812u    749.9974m  
    1.52000n      3.2811u    749.9974m  
    1.53000n      3.2810u    749.9974m  
    1.54000n      3.2809u    749.9974m  
    1.55000n      3.2808u    749.9974m  
    1.56000n      3.2807u    749.9974m  
    1.57000n      3.2806u    749.9974m  
    1.58000n      3.2805u    749.9974m  
    1.59000n      3.2804u    749.9974m  
    1.60000n      3.2803u    749.9974m  
    1.61000n      3.2802u    749.9974m  
    1.62000n      3.2801u    749.9974m  
    1.63000n      3.2801u    749.9974m  
    1.64000n      3.2802u    749.9974m  
    1.65000n      3.2803u    749.9974m  
    1.66000n      3.2804u    749.9974m  
    1.67000n      3.2805u    749.9974m  
    1.68000n      3.2806u    749.9974m  
    1.69000n      3.2807u    749.9974m  
    1.70000n      3.2808u    749.9974m  
    1.71000n      3.2809u    749.9974m  
    1.72000n      3.2810u    749.9974m  
    1.73000n      3.2811u    749.9974m  
    1.74000n      3.2812u    749.9974m  
    1.75000n      3.2813u    749.9974m  
    1.76000n      3.2814u    749.9974m  
    1.77000n      3.2815u    749.9974m  
    1.78000n      3.2816u    749.9974m  
    1.79000n      3.2818u    749.9974m  
    1.80000n      3.2819u    749.9974m  
    1.81000n      3.2820u    749.9974m  
    1.82000n      3.2821u    749.9974m  
    1.83000n      3.2820u    749.9974m  
    1.84000n      3.2819u    749.9974m  
    1.85000n      3.2818u    749.9974m  
    1.86000n      3.2816u    749.9974m  
    1.87000n      3.2815u    749.9974m  
    1.88000n      3.2814u    749.9974m  
    1.89000n      3.2813u    749.9974m  
    1.90000n      3.2812u    749.9974m  
    1.91000n      3.2811u    749.9974m  
    1.92000n      3.2810u    749.9974m  
    1.93000n      3.2809u    749.9974m  
    1.94000n      3.2807u    749.9974m  
    1.95000n      3.2806u    749.9974m  
    1.96000n      3.2805u    749.9974m  
    1.97000n      3.2804u    749.9974m  
    1.98000n      3.2803u    749.9974m  
    1.99000n      3.2802u    749.9974m  
    2.00000n      3.2801u    749.9974m  
    2.01000n      3.2810u    749.9974m  
    2.02000n      3.2810u    749.9974m  
    2.03000n      3.2810u    749.9974m  
    2.04000n      3.2810u    749.9974m  
    2.05000n      3.2810u    749.9974m  
    2.06000n      6.5269u    749.9971m  
    2.07000n   -812.1630u    749.9810m  
    2.08000n    188.5189m    558.0030m  
    2.09000n    386.7515m   -859.5297m  
    2.10000n    636.9598m     -2.3745   
    2.11000n      1.9711      -2.6286   
    2.12000n      1.9540      -2.4290   
    2.13000n      1.9004      -2.1081   
    2.14000n      1.8056      -1.6673   
    2.15000n      1.6272      -1.1116   
    2.16000n      1.1578    -427.8550m  
    2.17000n   -137.1397m     -1.4269   
    2.18000n     -1.6867      -2.6447   
    2.19000n     -3.0991      -2.2587   
    2.20000n     -3.7319      -1.7234   
    2.21000n     -3.2964      -1.0498   
    2.22000n     -2.5553     830.4382u  
    2.23000n     -1.1804       2.0306   
    2.24000n   -151.3934m      3.3381   
    2.25000n    175.0454m      3.1869   
    2.26000n    527.0606m      2.9090   
    2.27000n    303.7627m      2.5551   
    2.28000n     -1.5954       2.1025   
    2.29000n     -2.9138       2.6311   
    2.30000n     -2.0140       3.3055   
    2.31000n   -421.4694m      3.0422   
    2.32000n      1.6820       2.6883   
    2.33000n      3.5046       2.1790   
    2.34000n      3.7351     975.3918m  
    2.35000n      2.5732      -1.4062   
    2.36000n      1.8582      -2.7480   
    2.37000n      1.9677      -2.4304   
    2.38000n      2.0257      -2.0224   
    2.39000n      2.0284      -1.5074   
    2.40000n      2.0674    -637.3312m  
    2.41000n      2.7143     -17.0487m  
    2.42000n      3.2851       7.9555m  
    2.43000n      3.2084      -1.3026m  
    2.44000n      3.0388      -3.0519m  
    2.45000n      2.7588      -4.9096m  
    2.46000n      2.3379      -7.2062m  
    2.47000n      1.7539      -9.7955m  
    2.48000n      1.1060     -11.1645m  
    2.49000n      1.4320      -1.1647   
    2.50000n      2.0643      -2.4554   
    2.51000n      1.9921      -2.5541   
    2.52000n      1.8380      -2.3898   
    2.53000n      1.6208      -2.0620   
    2.54000n      1.3473      -1.5512   
    2.55000n    996.7809m   -655.2070m  
    2.56000n   -377.5590m      2.1509   
    2.57000n     -2.1557       1.8647   
    2.58000n     -4.0793      -2.6113   
    2.59000n     -3.5300      -2.2774   
    2.60000n   -598.9011m     -1.4023   
    2.61000n      1.9770      -2.5966   
    2.62000n      1.9826      -2.4815   
    2.63000n      1.9215      -2.2007   
    2.64000n      1.8217      -1.7996   
    2.65000n      1.6738      -1.3155   
    2.66000n      1.3872    -693.9446m  
    2.67000n      1.0272    -225.2688m  
    2.68000n      1.1188    -906.4926m  
    2.69000n      1.2374      -1.4547   
    2.70000n      1.2506      -1.8568   
    2.71000n      1.1269      -1.9432   
    2.72000n    682.4032m     -1.2333   
    2.73000n    760.0215m    -75.2160m  
    2.74000n     -1.1646      -2.7908   
    2.75000n     -2.8428      -2.5068   
    2.76000n     -4.2365      -2.1402   
    2.77000n     -3.7451      -1.6635   
    2.78000n     -3.1901      -1.1130   
    2.79000n     -1.8109     678.5334m  
    2.80000n    335.8203m      3.3365   
    2.81000n    718.1050m      3.1928   
    2.82000n      5.1909       2.9708   
    2.83000n      2.7508       2.0573   
    2.84000n      2.5309     501.9103m  
    2.85000n      1.9666      -2.2718   
    2.86000n      1.9357      -2.7812   
    2.87000n      2.0435      -2.3530   
    2.88000n      2.0334      -1.7364   
    2.89000n      1.9184      -1.0004   
    2.90000n      1.7466    -230.6364m  
    2.91000n    687.6751m     -2.7427   
    2.92000n      1.5313      -2.8714   
    2.93000n      2.1450      -2.1853   
    2.94000n      2.4027      -1.5320   
    2.95000n      2.7502    -380.0333m  
    2.96000n      2.6101     -19.1378m  
    2.97000n      2.1518      -8.3643m  
    2.98000n      1.1114     -17.1510m  
    2.99000n      1.0676    -630.5921m  
    3.00000n      1.3405      -1.2713   
    3.01000n      1.5462      -1.7556   
    3.02000n      1.7089      -2.1418   
    3.03000n      1.8159      -2.4062   
    3.04000n      1.8792      -2.4707   
    3.05000n      1.8394      -2.2791   
    3.06000n      1.6931      -1.7367   
    3.07000n      1.4940      -1.0939   
    3.08000n      1.0936    -395.2745m  
    3.09000n    762.5314m    -12.1784m  
    3.10000n    751.5879m     -1.2018m  
    3.11000n    750.1148m    -82.0422u  
    3.12000n    750.0061m     -2.8391u  
    3.13000n    749.9980m      2.8375u  
    3.14000n    749.9974m      3.2487u  
    3.15000n    749.9974m      3.2787u  
    3.16000n    749.9974m      3.2809u  
    3.17000n    749.9974m      3.2810u  
    3.18000n    749.9974m      3.2810u  
    3.19000n    749.9974m      3.2810u  
    3.20000n    749.9974m      3.2810u  
    3.21000n    749.9974m      3.2810u  
    3.22000n    749.9974m      3.2810u  
    3.23000n    749.9974m      3.2810u  
    3.24000n    749.9974m      3.2810u  
    3.25000n    749.9974m      3.2810u  
    3.26000n    749.9974m      3.2810u  
    3.27000n    749.9974m      3.2810u  
    3.28000n    749.9974m      3.2810u  
    3.29000n    749.9974m      3.2810u  
    3.30000n    749.9974m      3.2810u  
    3.31000n    749.9974m      3.2810u  
    3.32000n    749.9974m      3.2810u  
    3.33000n    749.9974m      3.2810u  
    3.34000n    749.9974m      3.2810u  
    3.35000n    749.9974m      3.2810u  
    3.36000n    749.9974m      3.2810u  
    3.37000n    749.9974m      3.2810u  
    3.38000n    749.9974m      3.2810u  
    3.39000n    749.9974m      3.2810u  
    3.40000n    749.9974m      3.2810u  
    3.41000n    749.9974m      3.2810u  
    3.42000n    749.9974m      3.2810u  
    3.43000n    749.9974m      3.2810u  
    3.44000n    749.9974m      3.2810u  
    3.45000n    749.9974m      3.2810u  
    3.46000n    749.9974m      3.2810u  
    3.47000n    749.9974m      3.2810u  
    3.48000n    749.9974m      3.2810u  
    3.49000n    749.9974m      3.2810u  
    3.50000n    749.9974m      3.2810u  
    3.51000n    749.9974m      3.2810u  
    3.52000n    749.9974m      3.2810u  
    3.53000n    749.9974m      3.2810u  
    3.54000n    749.9974m      3.2810u  
    3.55000n    749.9974m      3.2810u  
    3.56000n    749.9974m      3.2810u  
    3.57000n    749.9974m      3.2810u  
    3.58000n    749.9974m      3.2810u  
    3.59000n    749.9974m      3.2810u  
    3.60000n    749.9974m      3.2810u  
    3.61000n    749.9974m      3.2810u  
    3.62000n    749.9974m      3.2810u  
    3.63000n    749.9974m      3.2810u  
    3.64000n    749.9974m      3.2810u  
    3.65000n    749.9974m      3.2810u  
    3.66000n    749.9974m      3.2810u  
    3.67000n    749.9974m      3.2810u  
    3.68000n    749.9974m      3.2810u  
    3.69000n    749.9974m      3.2810u  
    3.70000n    749.9974m      3.2810u  
    3.71000n    749.9974m      3.2810u  
    3.72000n    749.9974m      3.2810u  
    3.73000n    749.9974m      3.2810u  
    3.74000n    749.9974m      3.2810u  
    3.75000n    749.9974m      3.2810u  
    3.76000n    749.9974m      3.2810u  
    3.77000n    749.9974m      3.2810u  
    3.78000n    749.9974m      3.2810u  
    3.79000n    749.9974m      3.2810u  
    3.80000n    749.9974m      3.2810u  
    3.81000n    749.9974m      3.2810u  
    3.82000n    749.9974m      3.2810u  
    3.83000n    749.9974m      3.2810u  
    3.84000n    749.9974m      3.2810u  
    3.85000n    749.9974m      3.2810u  
    3.86000n    749.9974m      3.2810u  
    3.87000n    749.9974m      3.2810u  
    3.88000n    749.9974m      3.2810u  
    3.89000n    749.9974m      3.2810u  
    3.90000n    749.9974m      3.2810u  
    3.91000n    749.9974m      3.2810u  
    3.92000n    749.9974m      3.2810u  
    3.93000n    749.9974m      3.2810u  
    3.94000n    749.9974m      3.2810u  
    3.95000n    749.9974m      3.2810u  
    3.96000n    749.9974m      3.2810u  
    3.97000n    749.9974m      3.2810u  
    3.98000n    749.9974m      3.2810u  
    3.99000n    749.9974m      3.2810u  
    4.00000n    749.9974m      3.2810u  
y

          ***** job concluded
1****** HSPICE -- F-2011.09-SP2 64-BIT (Feb 27 2012) linux ******               
 ******  
 $ netlist of inverter

  ******  job statistics summary tnom=  25.000 temp=  25.000 *****
  
  
 ******  Machine Information  ******
 CPU:
 model name	: Intel(R) Xeon(R) CPU E5-2650 v4 @ 2.20GHz
 cpu MHz	: 2596.687
  
 OS:
 Linux version 3.10.0-693.17.1.el7.x86_64 (mockbuild@x86-041.build.eng.bos.redha
 t.com) (gcc version 4.8.5 20150623 (Red Hat 4.8.5-16) (GCC) ) #1 SMP Sun Jan 14
  10:36:03 EST 2018


  ******  HSPICE Threads Information  ******

  Command Line Threads Count :     1
  Available CPU Count        :    24
  Actual Threads Count       :     1


  ******  Circuit Statistics  ******
  # nodes       =      44 # elements   =      19
  # resistors   =       0 # capacitors =       0 # inductors   =       0
  # mutual_inds =       0 # vccs       =       0 # vcvs        =       0
  # cccs        =       0 # ccvs       =       0 # volt_srcs   =       3
  # curr_srcs   =       0 # diodes     =       0 # bjts        =       0
  # jfets       =       0 # mosfets    =      16 # U elements  =       0
  # T elements  =       0 # W elements =       0 # B elements  =       0
  # S elements  =       0 # P elements =       0 # va device   =       0
  # vector_srcs =       0


  ******  Runtime Statistics (seconds)  ******

  analysis           time    # points   tot. iter  conv.iter
  op point           0.00           1           4
  transient          0.27         401        2400         296 rev=        14
  readin             0.00
  errchk             0.01
  setup              0.00
  output             0.00


           peak memory used        135.46 megabytes
           total cpu time            0.28 seconds
           total elapsed time        0.54 seconds
           job started at     18:27:17 09/13/2020
           job ended   at     18:27:17 09/13/2020


 lic: Release hspice token(s) 
