 ****** HSPICE -- F-2011.09-SP2 64-BIT (Feb 27 2012) linux ******               
  Copyright (C) 2011 Synopsys, Inc. All Rights Reserved.                        
  Unpublished-rights reserved under US copyright laws.
  This program is protected by law and is subject to the
  terms and conditions of the license agreement from Synopsys.
  Use of this program is your acceptance to be bound by the
  license agreement. HSPICE is the trademark of Synopsys, Inc.
  Input File: ptm14lstp.sp                                                      
  Command line options: ptm14lstp.sp
 lic:  
 lic: FLEXlm: v10.8 
 lic: USER:   iliabautista         HOSTNAME: itn1.rc.usf.edu 
 lic: HOSTID:                      PID:      6291 
 lic: Using FLEXlm license file: 
 lic: 27000@license0.rc.usf.edu 
 lic: Checkout 1 hspice 
 lic: License/Maintenance for hspice will expire on 18-jul-2021/2019.06 
 lic: 1(in_use)/50(total) FLOATING license(s) on SERVER license0.rc.usf.edu 
 lic:   
  **warning** (../modelfiles/lstp/14nfet.pm:4) Model nfet device geometries will not be checked against the limits set by lmin, lmax, nfinmin and nfinmax. To enable this check, add a period(.) to the model name(i.e. enable model selector).
1****** HSPICE -- F-2011.09-SP2 64-BIT (Feb 27 2012) linux ******               
 ******  
 $ netlist of inverter

  ******  circuit name directory
 circuit number to circuit name directory
   number circuitname                     definition         multiplier
        0 main circuit
        1 xinput_0.                       inverter           1.00 
        2 xmodel_uut_grid.                model_uut_grid     1.00 
        3 xoutput_00.                     inverter           1.00 
        4 xoutput_01.                     inverter           1.00 
        5 xoutput_02.                     inverter           1.00 
        6 xoutput_03.                     inverter           1.00 
        7 xinput_0.xpfet.                 pfet               1.00 
        8 xinput_0.xnfet.                 nfet               1.00 
        9 xmodel_uut_grid.xinverter00.    inverter           1.00 
       10 xoutput_00.xpfet.               pfet               1.00 
       11 xoutput_00.xnfet.               nfet               1.00 
       12 xoutput_01.xpfet.               pfet               1.00 
       13 xoutput_01.xnfet.               nfet               1.00 
       14 xoutput_02.xpfet.               pfet               1.00 
       15 xoutput_02.xnfet.               nfet               1.00 
       16 xoutput_03.xpfet.               pfet               1.00 
       17 xoutput_03.xnfet.               nfet               1.00 
       18 xmodel_uut_grid.xinverter00.xpfet.
                                            pfet               1.00 
       19 xmodel_uut_grid.xinverter00.xnfet.
                                            nfet               1.00 
1****** HSPICE -- F-2011.09-SP2 64-BIT (Feb 27 2012) linux ******               
 ******  
 $ netlist of inverter

  ******  mos   model parameters tnom=  25.000 temp=  25.000 *****
 Model Name: pfet 
 BSIM-MG BULK Model(Level72)
   VERSION = 105.03  
   DEVTYPE = -1 
   BULKMOD = 1  
   COREMOD = 0 
   GEOMOD = 1 
   RDSMOD = 1 
   IGCMOD = 1 
   IGBMOD = 1 
   GIDLMOD = 0 
   IIMOD = 0 
   NQSMOD = 0 
   SHMOD = 0 
   RGATEMOD = 0 
   RGEOMOD = 1 
   CGEOMOD = 2 
   CAPMOD = 0 
   LINT = 2.5e-10 m
   LL =      0 m^(LLN+1)
   LLN =      1 
   DLC =      0 m
   DLBIN =      0 
   LLC =      0 m^(LLN+1)
   EOT = 9.2e-10 m
   TOXP = 1.3e-09 m
   EOTBOX = 1.4e-07 m
   HFIN = 2.3e-08 m
   FECH =      1 
   DELTAW =      0 m
   FECHCV =      1 
   DELTAWCV =      0 m
   NBODY =  5e+22 m^-3
   NSD =  3e+26 m^-3
   PHIG =  4.574 eV
   EPSROX =    3.9 
   EPSRSUB =   11.9 
   EASUB =   4.05 eV
   NI0SUB = 1.1e+16 m^-3
   BG0SUB =   1.12 eV
   NC0SUB = 2.86e+25 m^-3
   NGATE =      0 m^-3
   CIT = 1.3e-05 F/m^2
   CDSC = 0.0216 F/m^2
   CDSCD =  0.007 F/m^2
   CDSCDR =  0.007 
   DVT0 =   0.01 
   DVT1 =   0.69 
   PHIN =   0.05 V
   ETA0 =   0.74 
   ETA0R =   0.74 
   DSUB =    0.9 
   K1RSCE =      0 V^1/2
   LPE0 =  5e-09 m
   DVTSHIFT =      0 
   QMFACTOR =      0 
   QMTCENIV =      0 
   QMTCENCV =      0 
   AQMTCEN =      0 
   BQMTCEN = 1.2e-08 
   ETAQM =   0.54 
   QM0 = 0.001143 
   PQM =   0.66 
   QM0ACC =  0.001 
   PQMACC =   0.66 
   VSAT = 1.05e+05 
   AVSAT =      0 
   BVSAT =  1e-07 
   VSAT1 = 1.05e+05 
   AVSAT1 =      0 
   BVSAT1 =  1e-07 
   DELTAVSAT =      1 
   KSATIV =    0.8 
   MEXP =      3 
   AMEXP =      0 
   BMEXP =      1 
   PTWG =      0 
   APTWG =      0 
   BPTWG =  1e-07 
   AT = -0.00156 
   TMEXP =      0 
   PTWGT =  0.004 
   U0 =  0.033 
   ETAMOB =      2 
   UP =      0 
   LPA =      1 
   UA =    0.3 
   AUA =      0 
   BUA =  1e-07 
   EU =    1.8 
   AEU =      0 
   BEU =  1e-07 
   UD =      0 
   AUD =      0 
   BUD =  5e-08 
   UCS =      0 
   UTE =      0 
   UTL = -0.0015 
   UA1 = 0.001032 
   UD1 =      0 
   UCSTE = -0.00478 
   RDSWMIN =      0 
   RDSW =    100 
   ARDSW =      0 
   BRDSW =  1e-07 
   RSWMIN =      0 
   RSW =      0 
   ARSW =      0 
   BRSW =  1e-07 
   RDWMIN =      0 
   RDW =      0 
   ARDW =      0 
   BRDW =  1e-07 
   PRWG =      0 
   WR =      1 
   PRT =  0.001 
   PDIBL1 =    1.3 
   PDIBL2 = 0.0002 
   DROUT =   1.06 
   PVAG =      1 
   PCLM =    0.2 
   APCLM =      0 
   BPCLM =  1e-07 
   PCLMG =      0 
   VASAT =    0.6 
   PCLMCV =  0.013 
   PCLMGCV =      0 
   VASATCV =    0.2 
   RGEXT =      0 ohm
   RGFIN =  0.001 ohm
   RSHS =      0 ohm
   RSHD =      0 ohm
   HEPI =  9e-09 m
   TSILI =  8e-09 m
   RHOC =  9e-13 ohm/m^2
   RHORSD =      1 ohm/m
   RHOEXT =      1 ohm/m
   CRATIO =    0.5 
   DELTAPRSD =      0 m
   SDTERM = 0 
   LSP = 3.6e-09 m
   LDG = 2.5e-09 m
   EPSRSP =    3.9 
   TGATE = 8.5e-09 m
   TMASK =      0 m
   ASILIEND =      0 m^2
   ARSDEND =      0 m^2
   PRSDEND =      0 m
   NSDE =  6e+25 m^-3
   RGEOA =      1 
   RGEOB =      0 m^-1
   RGEOC =      0 m^-1
   RGEOD =      0 m^-1
   RGEOE =      0 m^-1
   CGEOA =      1 
   CGEOB =      0 m^-1
   CGEOC =      0 m^-1
   CGEOD =      0 m^-1
   CGEOE =      1 
   AIGBINV = 0.0111 (Fs^2/g)^0.5m^-1
   BIGBINV =   0.03 (Fs^2/g)^0.5m^-1
   CIGBINV =  0.006 V^-1
   EIGBINV =    1.1 V
   NIGBINV =    1.2 
   AIGBACC = 0.0149 
   BIGBACC = 0.000949 
   CIGBACC =  0.075 
   NIGBACC =      3 
   AIGC = 0.0136 (Fs^2/g)^0.5m^-1
   BIGC = 0.00171 (Fs^2/g)^0.5m^-1V^-1
   CIGC =  0.075 V^-1
   NIGC =      1 
   DLCIGS =      0 m
   AIGS = 0.0136 (Fs^2/g)^0.5m^-1
   BIGS = 0.00171 (Fs^2/g)^0.5m^-1V^-1
   CIGS =  0.075 V^-1
   DLCIGD =      0 m
   AIGD = 0.0136 (Fs^2/g)^0.5m^-1
   BIGD = 0.00171 (Fs^2/g)^0.5m^-1V^-1
   CIGD =  0.075 V^-1
   POXEDGE =      1 
   AGIDL = 5.729e-12 ohm^-1
   BGIDL =  3e+08 V/m
   EGIDL =    0.1 V
   AGISL = 5.729e-12 ohm^-1
   BGISL =  3e+08 V/m
   EGISL =    0.1 V
   ALPHA0 =      0 mV^-1
   ALPHA1 =      0 V^-1
   BETA0 =     30 V^-1
   ALPHAII =      0 
   BETAII0 =      0 V^-1
   BETAII1 =      0 
   BETAII2 =    0.1 V
   ESATII =  1e+07 V/m
   LII =  5e-10 V/m
   SII0 =    0.5 V^-1
   SII1 =    0.1 
   SII2 =      0 V
   SIID =      0 V
   EOTACC = 9.2e-10 m
   DELVFBACC =      0 V
   CFS = 2.56e-11 F/m
   CFD = 2.65e-11 F/m
   COVS = 2.5e-11 F/m
   COVD = 2.5e-11 F/m
   CGSO =      0 F/m
   CGDO =      0 F/m
   CGSL =      0 F/m
   CGDL =      0 F/m
   CKAPPAS =    0.6 V
   CKAPPAD =    0.6 V
   CGBO =      0 F/m
   CGBL =      0 F/m
   CKAPPAB =    0.6 V
   CSDESW =      0 F/m
   CJS = 0.0005 F/m^2
   CJD = 0.0005 F/m^2
   CJSWS =  5e-10 F/m
   CJSWD =  5e-10 F/m
   CJSWGS =      0 F/m
   CJSWGD =      0 F/m
   PBS =      1 V
   PBD =      1 V
   PBSWS =      1 V
   PBSWD =      1 V
   PBSWGS =      1 V
   PBSWGD =      1 V
   MJS, =    0.5 
   MJD =    0.5 
   MJSWS =   0.33 
   MJSWD =   0.33 
   MJSWGS =   0.33 
   MJSWGD =   0.33 
   SJS =      0 
   SJD =      0 
   SJSWS =      0 
   SJSWD =      0 
   SJSWGS =      0 
   SJSWGD =      0 
   MJS2 =  0.125 
   MJD2 =  0.125 
   MJSWS2 =   0.33 
   MJSWD2 =   0.33 
   MJSWGS2 =   0.33 
   MJSWGD2 =   0.33 
   JSS = 0.0001 A/m^2
   JSD = 0.0001 A/m^2
   JSWS =      0 A/m
   JSWD =      0 A/m
   JSWGS =      0 A/m
   JSWGD =      0 A/m
   NJS =      1 
   NJD =      1 
   IJTHSFWD =    0.1 A
   IJTHDFWD =    0.1 A
   IJTHSREV =    0.1 A
   IJTHDREV =    0.1 A
   BVS =     10 V
   BVD =     10 V
   XJBVS =      1 
   XJBVD =      1 
   JTSS =      0 A/m^2
   JTSD =      0 A/m^2
   JTSSWS =      0 A/m
   JTSSWD =      0 A/m
   JTSSWGS =      0 A/m
   JTSSWGD =      0 A/m
   JTWEFF =      0 m
   NJTS =     20 
   NJTSD =     20 
   NJTSSW =     20 
   NJTSSWD =     20 
   NJTSSWG =     20 
   NJTSSWGD =     20 
   VTSS =     10 V
   VTSD =     10 V
   VTSSWS =     10 V
   VTSSWD =     10 V
   VTSSWGS =     10 V
   VTSSWGD =     10 V
   LINTIGEN =      0 m
   NTGEN =      1 
   AIGEN =      0 m^-3V^-1
   BIGEN =      0 m^-3V^-3
   XRCRG1 =     12 
   XRCRG2 =      1 
   NSEG = 5 
   EF =      1 
   EM = 4.1e+07 V/m
   NOIA = 6.25e+39 eV^-1s^1-EFm^-3
   NOIB = 3.125e+24 eV^-1s^1-EFm^-1
   NOIC = 8.75e+07 eV^-1s^1-EFm
   NTNOI =      1 
   TNOM =  300.1 K
   TBGASUB = 0.000702 eV/K
   TBGBSUB =   1108 K
   KT1 =      0 V
   KT1L =      0 Vm
   IIT =   -0.5 
   TII =      0 
   TGIDL = -0.0003 K^-1
   IGT =    2.5 
   TCJ =      0 K^-1
   TCJSW =      0 K^-1
   TCJSWG =      0 K^-1
   TPB =      0 K^-1
   TPBSW =      0 K^-1
   TPBSWG =      0 K^-1
   XTIS =      3 
   XTID =      3 
   XTSS =   0.02 
   XTSD =   0.02 
   XTSSWS =   0.02 
   XTSSWD =   0.02 
   XTSSWGS =   0.02 
   XTSSWGD =   0.02 
   TNJTS =      0 
   TNJTSD =      0 
   TNJTSSW =      0 
   TNJTSSWD =      0 
   TNJTSSWG =      0 
   TNJTSSWGD =      0 
   RTH0 =   0.01 ohm
   CTH0 =  1e-05 F
   WTH0 =      0 m
   LNBODY =      0 
   NNBODY =      0 
   PNBODY =      0 
   LPHIG =      0 
   NPHIG =      0 
   PPHIG =      0 
   LNGATE =      0 
   NNGATE =      0 
   PNGATE =      0 
   LCIT =      0 
   NCIT =      0 
   PCIT =      0 
   LCDSC =      0 
   NCDSC =      0 
   PCDSC =      0 
   LCDSCD =      0 
   NCDSCD =      0 
   PCDSCD =      0 
   LCDSCDR =      0 
   NCDSCDR =      0 
   PCDSCDR =      0 
   LDVT0 =      0 
   NDVT0 =      0 
   PDVT0 =      0 
   LDVT1 =      0 
   NDVT1 =      0 
   PDVT1 =      0 
   LPHIN =      0 
   NPHIN =      0 
   PPHIN =      0 
   LETA0 =      0 
   NETA0 =      0 
   PETA0 =      0 
   LETA0R =      0 
   NETA0R =      0 
   PETA0R =      0 
   LDSUB =      0 
   NDSUB =      0 
   PDSUB =      0 
   LK1RSCE =      0 
   NK1RSCE =      0 
   PK1RSCE =      0 
   LLPE0 =      0 
   NLPE0 =      0 
   PLPE0 =      0 
   LQMFACTOR =      0 
   NQMFACTOR =      0 
   PQMFACTOR =      0 
   LQMTCENIV =      0 
   NQMTCENIV =      0 
   PQMTCENIV =      0 
   LQMTCENCV =      0 
   NQMTCENCV =      0 
   PQMTCENCV =      0 
   LVSAT =      0 
   NVSAT =      0 
   PVSAT =      0 
   LKSATIV =      0 
   NKSATIV =      0 
   PKSATIV =      0 
   LMEXP =      0 
   NMEXP =      0 
   PMEXP =      0 
   LPTWG =      0 
   NPTWG =      0 
   PPTWG =      0 
   LTHETASAT =      0 
   NTHETASAT =      0 
   PTHETASAT =      0 
   LU0 =      0 
   NU0 =      0 
   PU0 =      0 
   LUP =      0 
   NUP =      0 
   PUP =      0 
   LUA =      0 
   NUA =      0 
   PUA =      0 
   LEU =      0 
   NEU =      0 
   PEU =      0 
   LUD =      0 
   NUD =      0 
   PUD =      0 
   LUCS =      0 
   NUCS =      0 
   PUCS =      0 
   LPCLM =      0 
   NPCLM =      0 
   PPCLM =      0 
   LPCLMCV =      0 
   NPCLMCV =      0 
   PPCLMCV =      0 
   LRDSW =      0 
   NRDSW =      0 
   PRDSW =      0 
   LRSW =      0 
   NRSW =      0 
   PRSW =      0 
   LRDW =      0 
   NRDW =      0 
   PRDW =      0 
   LPRWG =      0 
   NPRWG =      0 
   PPRWG =      0 
   LWR =      0 
   NWR =      0 
   PWR =      0 
   LPDIBL1 =      0 
   NPDIBL1 =      0 
   PPDIBL1 =      0 
   LPDIBL2 =      0 
   NPDIBL2 =      0 
   PPDIBL2 =      0 
   LDROUT =      0 
   NDROUT =      0 
   PDROUT =      0 
   LPVAG =      0 
   NPVAG =      0 
   PPVAG =      0 
   LAIGBINV =      0 
   NAIGBINV =      0 
   PAIGBINV =      0 
   LBIGBINV =      0 
   NBIGBINV =      0 
   PBIGBINV =      0 
   LCIGBINV =      0 
   NCIGBINV =      0 
   PCIGBINV =      0 
   LEIGBINV =      0 
   NEIGBINV =      0 
   PEIGBINV =      0 
   LNIGBINV =      0 
   NNIGBINV =      0 
   PNIGBINV =      0 
   LAIGC =      0 
   NAIGC =      0 
   PAIGC =      0 
   LBIGC =      0 
   NBIGC =      0 
   PBIGC =      0 
   LCIGC =      0 
   NCIGC =      0 
   PCIGC =      0 
   LNIGC =      0 
   NNIGC =      0 
   PNIGC =      0 
   LAIGS =      0 
   NAIGS =      0 
   PAIGS =      0 
   LBIGS =      0 
   NBIGS =      0 
   PBIGS =      0 
   LCIGS =      0 
   NCIGS =      0 
   PCIGS =      0 
   LAIGD =      0 
   NAIGD =      0 
   PAIGD =      0 
   LBIGD =      0 
   NBIGD =      0 
   PBIGD =      0 
   LCIGD =      0 
   NCIGD =      0 
   PCIGD =      0 
   LPOXEDGE =      0 
   NPOXEDGE =      0 
   PPOXEDGE =      0 
   LAGIDL =      0 
   NAGIDL =      0 
   PAGIDL =      0 
   LBGIDL =      0 
   NBGIDL =      0 
   PBGIDL =      0 
   LEGIDL =      0 
   NEGIDL =      0 
   PEGIDL =      0 
   LAGISL =      0 
   NAGISL =      0 
   PAGISL =      0 
   LBGISL =      0 
   NBGISL =      0 
   PBGISL =      0 
   LEGISL =      0 
   NEGISL =      0 
   PEGISL =      0 
   LALPHA0 =      0 
   NALPHA0 =      0 
   PALPHA0 =      0 
   LALPHA1 =      0 
   NALPHA1 =      0 
   PALPHA1 =      0 
   LBETA0 =      0 
   NBETA0 =      0 
   PBETA0 =      0 
   LALPHAII =      0 
   NALPHAII =      0 
   PALPHAII =      0 
   LBETAII0 =      0 
   NBETAII0 =      0 
   PBETAII0 =      0 
   LBETAII1 =      0 
   NBETAII1 =      0 
   PBETAII1 =      0 
   LBETAII2 =      0 
   NBETAII2 =      0 
   PBETAII2 =      0 
   LESATII =      0 
   NESATII =      0 
   PESATII =      0 
   LLII =      0 
   NLII =      0 
   PLII =      0 
   LSII0 =      0 
   NSII0 =      0 
   PSII0 =      0 
   LSII1 =      0 
   NSII1 =      0 
   PSII1 =      0 
   LSII2 =      0 
   NSII2 =      0 
   PSII2 =      0 
   LSIID =      0 
   NSIID =      0 
   PSIID =      0 
   LCFS =      0 
   NCFS =      0 
   PCFS =      0 
   LCFD =      0 
   NCFD =      0 
   PCFD =      0 
   LCOVS =      0 
   NCOVS =      0 
   PCOVS =      0 
   LCOVD =      0 
   NCOVD =      0 
   PCOVD =      0 
   LCGSL =      0 
   NCGSL =      0 
   PCGSL =      0 
   LCGDL =      0 
   NCGDL =      0 
   PCGDL =      0 
   LCKAPPAS =      0 
   NCKAPPAS =      0 
   PCKAPPAS =      0 
   LCKAPPAD =      0 
   NCKAPPAD =      0 
   PCKAPPAD =      0 
   LCGBL =      0 
   NCGBL =      0 
   PCGBL =      0 
   LCKAPPAB =      0 
   NCKAPPAB =      0 
   PCKAPPAB =      0 
   LNTGEN =      0 
   NNTGEN =      0 
   PNTGEN =      0 
   LAIGEN =      0 
   NAIGEN =      0 
   PAIGEN =      0 
   LBIGEN =      0 
   NBIGEN =      0 
   PBIGEN =      0 
   LXRCRG1 =      0 
   NXRCRG1 =      0 
   PXRCRG1 =      0 
   LXRCRG2 =      0 
   NXRCRG2 =      0 
   PXRCRG2 =      0 
   LINTNOI =      0 
   NINTNOI =      0 
   PINTNOI =      0 
   LUTE =      0 
   NUTE =      0 
   PUTE =      0 
   LUTL =      0 
   NUTL =      0 
   PUTL =      0 
   LUA1 =      0 
   NUA1 =      0 
   PUA1 =      0 
   LUD1 =      0 
   NUD1 =      0 
   PUD1 =      0 
   LUCSTE =      0 
   NUCSTE =      0 
   PUCSTE =      0 
   LPTWGT =      0 
   NPTWGT =      0 
   PPTWGT =      0 
   LAT =      0 
   NAT =      0 
   PAT =      0 
   LSTTHETASAT =      0 
   NSTTHETASAT =      0 
   PSTTHETASAT =      0 
   LPRT =      0 
   NPRT =      0 
   PPRT =      0 
   LIIT =      0 
   NIIT =      0 
   PIIT =      0 
   LTII =      0 
   NTII =      0 
   PTII =      0 
   LTGIDL =      0 
   NTGIDL =      0 
   PTGIDL =      0 
   LIGT =      0 
   NIGT =      0 
   PIGT =      0 
   L = 1.8e-08 m
   D =  4e-08 m
   TFIN =  1e-08 m
   FPITCH = 3.2e-08 m
   NF = 1 
   NFIN = 1 
   NGCON = 1 
   ASEO =      0 m^2
   ADEO =      0 m^2
   PSEO =      0 m
   PDEO =      0 m
   ASEJ =      0 m^2
   ADEJ =      0 m^2
   PSEJ =      0 m
   PDEJ =      0 m
   CGSP =      0 F
   CGDP =      0 F
   CDSP =      0 F
   NRS =      0 
   NRD =      0 
   LRSD = 1.8e-08 m
   XL =      0 m
   DELVTRAND =      0 
   U0MULT =      1 
   IDS0MULT =      1 
   Lmin =  1e-08 m
   Lmax =  3e-08 m
   NFINmin = 0 
   NFINmax = 1 
   LVSAT1 =      0 
   NVSAT1 =      0 
   PVSAT1 =      0 
   LETAMOB =      0 
   NETAMOB =      0 
   PETAMOB =      0 
   LPCLMG =      0 
   NPCLMG =      0 
   PPCLMG =      0 
   LVASAT =      0 
   NVASAT =      0 
   PVASAT =      0 
   LAIGBACC =      0 
   NAIGBACC =      0 
   PAIGBACC =      0 
   LBIGBACC =      0 
   NBIGBACC =      0 
   PBIGBACC =      0 
   LCIGBACC =      0 
   NCIGBACC =      0 
   PCIGBACC =      0 
   LNIGBACC =      0 
   NNIGBACC =      0 
   PNIGBACC =      0 
 Model Name: nfet 
 BSIM-MG BULK Model(Level72)
   VERSION = 105.03  
   DEVTYPE = 1 
   BULKMOD = 1  
   COREMOD = 0 
   GEOMOD = 1 
   RDSMOD = 1 
   IGCMOD = 1 
   IGBMOD = 1 
   GIDLMOD = 0 
   IIMOD = 0 
   NQSMOD = 0 
   SHMOD = 0 
   RGATEMOD = 0 
   RGEOMOD = 1 
   CGEOMOD = 2 
   CAPMOD = 0 
   LINT = 2.5e-10 m
   LL =      0 m^(LLN+1)
   LLN =      1 
   DLC =      0 m
   DLBIN =      0 
   LLC =      0 m^(LLN+1)
   EOT = 9.2e-10 m
   TOXP = 1.3e-09 m
   EOTBOX = 1.4e-07 m
   HFIN = 2.3e-08 m
   FECH =      1 
   DELTAW =      0 m
   FECHCV =      1 
   DELTAWCV =      0 m
   NBODY =  5e+22 m^-3
   NSD =  3e+26 m^-3
   PHIG =  4.603 eV
   EPSROX =    3.9 
   EPSRSUB =   11.9 
   EASUB =   4.05 eV
   NI0SUB = 1.1e+16 m^-3
   BG0SUB =   1.12 eV
   NC0SUB = 2.86e+25 m^-3
   NGATE =      0 m^-3
   CIT = 1.3e-05 F/m^2
   CDSC = 0.0216 F/m^2
   CDSCD =  0.007 F/m^2
   CDSCDR =  0.007 
   DVT0 =   0.01 
   DVT1 =   0.69 
   PHIN =   0.05 V
   ETA0 = 0.5141 
   ETA0R = 0.5141 
   DSUB =    0.9 
   K1RSCE =      0 V^1/2
   LPE0 =  5e-09 m
   DVTSHIFT =      0 
   QMFACTOR =      0 
   QMTCENIV =      0 
   QMTCENCV =      0 
   AQMTCEN =      0 
   BQMTCEN = 1.2e-08 
   ETAQM =   0.54 
   QM0 = 0.001143 
   PQM =   0.66 
   QM0ACC =  0.001 
   PQMACC =   0.66 
   VSAT = 1.1e+05 
   AVSAT =      0 
   BVSAT =  1e-07 
   VSAT1 = 1.1e+05 
   AVSAT1 =      0 
   BVSAT1 =  1e-07 
   DELTAVSAT =      1 
   KSATIV =    0.8 
   MEXP =      3 
   AMEXP =      0 
   BMEXP =      1 
   PTWG =      0 
   APTWG =      0 
   BPTWG =  1e-07 
   AT = -0.00156 
   TMEXP =      0 
   PTWGT =  0.004 
   U0 =  0.052 
   ETAMOB =      2 
   UP =      0 
   LPA =      1 
   UA =    0.3 
   AUA =      0 
   BUA =  1e-07 
   EU =    1.8 
   AEU =      0 
   BEU =  1e-07 
   UD =      0 
   AUD =      0 
   BUD =  5e-08 
   UCS =      0 
   UTE =      0 
   UTL = -0.0015 
   UA1 = 0.001032 
   UD1 =      0 
   UCSTE = -0.00478 
   RDSWMIN =      0 
   RDSW =    100 
   ARDSW =      0 
   BRDSW =  1e-07 
   RSWMIN =      0 
   RSW =      0 
   ARSW =      0 
   BRSW =  1e-07 
   RDWMIN =      0 
   RDW =      0 
   ARDW =      0 
   BRDW =  1e-07 
   PRWG =      0 
   WR =      1 
   PRT =  0.001 
   PDIBL1 =    1.3 
   PDIBL2 = 0.0002 
   DROUT =   1.06 
   PVAG =      1 
   PCLM =    0.2 
   APCLM =      0 
   BPCLM =  1e-07 
   PCLMG =      0 
   VASAT =    0.6 
   PCLMCV =  0.013 
   PCLMGCV =      0 
   VASATCV =    0.2 
   RGEXT =      0 ohm
   RGFIN =  0.001 ohm
   RSHS =      0 ohm
   RSHD =      0 ohm
   HEPI =  9e-09 m
   TSILI =  8e-09 m
   RHOC =  8e-13 ohm/m^2
   RHORSD =      1 ohm/m
   RHOEXT =      1 ohm/m
   CRATIO =    0.5 
   DELTAPRSD =      0 m
   SDTERM = 0 
   LSP = 3.6e-09 m
   LDG = 2.5e-09 m
   EPSRSP =    3.9 
   TGATE = 8.5e-09 m
   TMASK =      0 m
   ASILIEND =      0 m^2
   ARSDEND =      0 m^2
   PRSDEND =      0 m
   NSDE =  6e+25 m^-3
   RGEOA =      1 
   RGEOB =      0 m^-1
   RGEOC =      0 m^-1
   RGEOD =      0 m^-1
   RGEOE =      0 m^-1
   CGEOA =      1 
   CGEOB =      0 m^-1
   CGEOC =      0 m^-1
   CGEOD =      0 m^-1
   CGEOE =      1 
   AIGBINV = 0.0111 (Fs^2/g)^0.5m^-1
   BIGBINV =   0.03 (Fs^2/g)^0.5m^-1
   CIGBINV =  0.006 V^-1
   EIGBINV =    1.1 V
   NIGBINV =    1.2 
   AIGBACC = 0.0149 
   BIGBACC = 0.000949 
   CIGBACC =  0.075 
   NIGBACC =      3 
   AIGC = 0.0136 (Fs^2/g)^0.5m^-1
   BIGC = 0.00171 (Fs^2/g)^0.5m^-1V^-1
   CIGC =  0.075 V^-1
   NIGC =      1 
   DLCIGS =      0 m
   AIGS = 0.0136 (Fs^2/g)^0.5m^-1
   BIGS = 0.00171 (Fs^2/g)^0.5m^-1V^-1
   CIGS =  0.075 V^-1
   DLCIGD =      0 m
   AIGD = 0.0136 (Fs^2/g)^0.5m^-1
   BIGD = 0.00171 (Fs^2/g)^0.5m^-1V^-1
   CIGD =  0.075 V^-1
   POXEDGE =      1 
   AGIDL = 5.729e-12 ohm^-1
   BGIDL =  3e+08 V/m
   EGIDL =    0.1 V
   AGISL = 5.729e-12 ohm^-1
   BGISL =  3e+08 V/m
   EGISL =    0.1 V
   ALPHA0 =      0 mV^-1
   ALPHA1 =      0 V^-1
   BETA0 =     30 V^-1
   ALPHAII =      0 
   BETAII0 =      0 V^-1
   BETAII1 =      0 
   BETAII2 =    0.1 V
   ESATII =  1e+07 V/m
   LII =  5e-10 V/m
   SII0 =    0.5 V^-1
   SII1 =    0.1 
   SII2 =      0 V
   SIID =      0 V
   EOTACC = 9.2e-10 m
   DELVFBACC =      0 V
   CFS = 2.56e-11 F/m
   CFD = 2.65e-11 F/m
   COVS = 2.5e-11 F/m
   COVD = 2.5e-11 F/m
   CGSO =      0 F/m
   CGDO =      0 F/m
   CGSL =      0 F/m
   CGDL =      0 F/m
   CKAPPAS =    0.6 V
   CKAPPAD =    0.6 V
   CGBO =      0 F/m
   CGBL =      0 F/m
   CKAPPAB =    0.6 V
   CSDESW =      0 F/m
   CJS = 0.0005 F/m^2
   CJD = 0.0005 F/m^2
   CJSWS =  5e-10 F/m
   CJSWD =  5e-10 F/m
   CJSWGS =      0 F/m
   CJSWGD =      0 F/m
   PBS =      1 V
   PBD =      1 V
   PBSWS =      1 V
   PBSWD =      1 V
   PBSWGS =      1 V
   PBSWGD =      1 V
   MJS, =    0.5 
   MJD =    0.5 
   MJSWS =   0.33 
   MJSWD =   0.33 
   MJSWGS =   0.33 
   MJSWGD =   0.33 
   SJS =      0 
   SJD =      0 
   SJSWS =      0 
   SJSWD =      0 
   SJSWGS =      0 
   SJSWGD =      0 
   MJS2 =  0.125 
   MJD2 =  0.125 
   MJSWS2 =   0.33 
   MJSWD2 =   0.33 
   MJSWGS2 =   0.33 
   MJSWGD2 =   0.33 
   JSS = 0.0001 A/m^2
   JSD = 0.0001 A/m^2
   JSWS =      0 A/m
   JSWD =      0 A/m
   JSWGS =      0 A/m
   JSWGD =      0 A/m
   NJS =      1 
   NJD =      1 
   IJTHSFWD =    0.1 A
   IJTHDFWD =    0.1 A
   IJTHSREV =    0.1 A
   IJTHDREV =    0.1 A
   BVS =     10 V
   BVD =     10 V
   XJBVS =      1 
   XJBVD =      1 
   JTSS =      0 A/m^2
   JTSD =      0 A/m^2
   JTSSWS =      0 A/m
   JTSSWD =      0 A/m
   JTSSWGS =      0 A/m
   JTSSWGD =      0 A/m
   JTWEFF =      0 m
   NJTS =     20 
   NJTSD =     20 
   NJTSSW =     20 
   NJTSSWD =     20 
   NJTSSWG =     20 
   NJTSSWGD =     20 
   VTSS =     10 V
   VTSD =     10 V
   VTSSWS =     10 V
   VTSSWD =     10 V
   VTSSWGS =     10 V
   VTSSWGD =     10 V
   LINTIGEN =      0 m
   NTGEN =      1 
   AIGEN =      0 m^-3V^-1
   BIGEN =      0 m^-3V^-3
   XRCRG1 =     12 
   XRCRG2 =      1 
   NSEG = 5 
   EF =      1 
   EM = 4.1e+07 V/m
   NOIA = 6.25e+39 eV^-1s^1-EFm^-3
   NOIB = 3.125e+24 eV^-1s^1-EFm^-1
   NOIC = 8.75e+07 eV^-1s^1-EFm
   NTNOI =      1 
   TNOM =  300.1 K
   TBGASUB = 0.000702 eV/K
   TBGBSUB =   1108 K
   KT1 =      0 V
   KT1L =      0 Vm
   IIT =   -0.5 
   TII =      0 
   TGIDL = -0.0003 K^-1
   IGT =    2.5 
   TCJ =      0 K^-1
   TCJSW =      0 K^-1
   TCJSWG =      0 K^-1
   TPB =      0 K^-1
   TPBSW =      0 K^-1
   TPBSWG =      0 K^-1
   XTIS =      3 
   XTID =      3 
   XTSS =   0.02 
   XTSD =   0.02 
   XTSSWS =   0.02 
   XTSSWD =   0.02 
   XTSSWGS =   0.02 
   XTSSWGD =   0.02 
   TNJTS =      0 
   TNJTSD =      0 
   TNJTSSW =      0 
   TNJTSSWD =      0 
   TNJTSSWG =      0 
   TNJTSSWGD =      0 
   RTH0 =   0.01 ohm
   CTH0 =  1e-05 F
   WTH0 =      0 m
   LNBODY =      0 
   NNBODY =      0 
   PNBODY =      0 
   LPHIG =      0 
   NPHIG =      0 
   PPHIG =      0 
   LNGATE =      0 
   NNGATE =      0 
   PNGATE =      0 
   LCIT =      0 
   NCIT =      0 
   PCIT =      0 
   LCDSC =      0 
   NCDSC =      0 
   PCDSC =      0 
   LCDSCD =      0 
   NCDSCD =      0 
   PCDSCD =      0 
   LCDSCDR =      0 
   NCDSCDR =      0 
   PCDSCDR =      0 
   LDVT0 =      0 
   NDVT0 =      0 
   PDVT0 =      0 
   LDVT1 =      0 
   NDVT1 =      0 
   PDVT1 =      0 
   LPHIN =      0 
   NPHIN =      0 
   PPHIN =      0 
   LETA0 =      0 
   NETA0 =      0 
   PETA0 =      0 
   LETA0R =      0 
   NETA0R =      0 
   PETA0R =      0 
   LDSUB =      0 
   NDSUB =      0 
   PDSUB =      0 
   LK1RSCE =      0 
   NK1RSCE =      0 
   PK1RSCE =      0 
   LLPE0 =      0 
   NLPE0 =      0 
   PLPE0 =      0 
   LQMFACTOR =      0 
   NQMFACTOR =      0 
   PQMFACTOR =      0 
   LQMTCENIV =      0 
   NQMTCENIV =      0 
   PQMTCENIV =      0 
   LQMTCENCV =      0 
   NQMTCENCV =      0 
   PQMTCENCV =      0 
   LVSAT =      0 
   NVSAT =      0 
   PVSAT =      0 
   LKSATIV =      0 
   NKSATIV =      0 
   PKSATIV =      0 
   LMEXP =      0 
   NMEXP =      0 
   PMEXP =      0 
   LPTWG =      0 
   NPTWG =      0 
   PPTWG =      0 
   LTHETASAT =      0 
   NTHETASAT =      0 
   PTHETASAT =      0 
   LU0 =      0 
   NU0 =      0 
   PU0 =      0 
   LUP =      0 
   NUP =      0 
   PUP =      0 
   LUA =      0 
   NUA =      0 
   PUA =      0 
   LEU =      0 
   NEU =      0 
   PEU =      0 
   LUD =      0 
   NUD =      0 
   PUD =      0 
   LUCS =      0 
   NUCS =      0 
   PUCS =      0 
   LPCLM =      0 
   NPCLM =      0 
   PPCLM =      0 
   LPCLMCV =      0 
   NPCLMCV =      0 
   PPCLMCV =      0 
   LRDSW =      0 
   NRDSW =      0 
   PRDSW =      0 
   LRSW =      0 
   NRSW =      0 
   PRSW =      0 
   LRDW =      0 
   NRDW =      0 
   PRDW =      0 
   LPRWG =      0 
   NPRWG =      0 
   PPRWG =      0 
   LWR =      0 
   NWR =      0 
   PWR =      0 
   LPDIBL1 =      0 
   NPDIBL1 =      0 
   PPDIBL1 =      0 
   LPDIBL2 =      0 
   NPDIBL2 =      0 
   PPDIBL2 =      0 
   LDROUT =      0 
   NDROUT =      0 
   PDROUT =      0 
   LPVAG =      0 
   NPVAG =      0 
   PPVAG =      0 
   LAIGBINV =      0 
   NAIGBINV =      0 
   PAIGBINV =      0 
   LBIGBINV =      0 
   NBIGBINV =      0 
   PBIGBINV =      0 
   LCIGBINV =      0 
   NCIGBINV =      0 
   PCIGBINV =      0 
   LEIGBINV =      0 
   NEIGBINV =      0 
   PEIGBINV =      0 
   LNIGBINV =      0 
   NNIGBINV =      0 
   PNIGBINV =      0 
   LAIGC =      0 
   NAIGC =      0 
   PAIGC =      0 
   LBIGC =      0 
   NBIGC =      0 
   PBIGC =      0 
   LCIGC =      0 
   NCIGC =      0 
   PCIGC =      0 
   LNIGC =      0 
   NNIGC =      0 
   PNIGC =      0 
   LAIGS =      0 
   NAIGS =      0 
   PAIGS =      0 
   LBIGS =      0 
   NBIGS =      0 
   PBIGS =      0 
   LCIGS =      0 
   NCIGS =      0 
   PCIGS =      0 
   LAIGD =      0 
   NAIGD =      0 
   PAIGD =      0 
   LBIGD =      0 
   NBIGD =      0 
   PBIGD =      0 
   LCIGD =      0 
   NCIGD =      0 
   PCIGD =      0 
   LPOXEDGE =      0 
   NPOXEDGE =      0 
   PPOXEDGE =      0 
   LAGIDL =      0 
   NAGIDL =      0 
   PAGIDL =      0 
   LBGIDL =      0 
   NBGIDL =      0 
   PBGIDL =      0 
   LEGIDL =      0 
   NEGIDL =      0 
   PEGIDL =      0 
   LAGISL =      0 
   NAGISL =      0 
   PAGISL =      0 
   LBGISL =      0 
   NBGISL =      0 
   PBGISL =      0 
   LEGISL =      0 
   NEGISL =      0 
   PEGISL =      0 
   LALPHA0 =      0 
   NALPHA0 =      0 
   PALPHA0 =      0 
   LALPHA1 =      0 
   NALPHA1 =      0 
   PALPHA1 =      0 
   LBETA0 =      0 
   NBETA0 =      0 
   PBETA0 =      0 
   LALPHAII =      0 
   NALPHAII =      0 
   PALPHAII =      0 
   LBETAII0 =      0 
   NBETAII0 =      0 
   PBETAII0 =      0 
   LBETAII1 =      0 
   NBETAII1 =      0 
   PBETAII1 =      0 
   LBETAII2 =      0 
   NBETAII2 =      0 
   PBETAII2 =      0 
   LESATII =      0 
   NESATII =      0 
   PESATII =      0 
   LLII =      0 
   NLII =      0 
   PLII =      0 
   LSII0 =      0 
   NSII0 =      0 
   PSII0 =      0 
   LSII1 =      0 
   NSII1 =      0 
   PSII1 =      0 
   LSII2 =      0 
   NSII2 =      0 
   PSII2 =      0 
   LSIID =      0 
   NSIID =      0 
   PSIID =      0 
   LCFS =      0 
   NCFS =      0 
   PCFS =      0 
   LCFD =      0 
   NCFD =      0 
   PCFD =      0 
   LCOVS =      0 
   NCOVS =      0 
   PCOVS =      0 
   LCOVD =      0 
   NCOVD =      0 
   PCOVD =      0 
   LCGSL =      0 
   NCGSL =      0 
   PCGSL =      0 
   LCGDL =      0 
   NCGDL =      0 
   PCGDL =      0 
   LCKAPPAS =      0 
   NCKAPPAS =      0 
   PCKAPPAS =      0 
   LCKAPPAD =      0 
   NCKAPPAD =      0 
   PCKAPPAD =      0 
   LCGBL =      0 
   NCGBL =      0 
   PCGBL =      0 
   LCKAPPAB =      0 
   NCKAPPAB =      0 
   PCKAPPAB =      0 
   LNTGEN =      0 
   NNTGEN =      0 
   PNTGEN =      0 
   LAIGEN =      0 
   NAIGEN =      0 
   PAIGEN =      0 
   LBIGEN =      0 
   NBIGEN =      0 
   PBIGEN =      0 
   LXRCRG1 =      0 
   NXRCRG1 =      0 
   PXRCRG1 =      0 
   LXRCRG2 =      0 
   NXRCRG2 =      0 
   PXRCRG2 =      0 
   LINTNOI =      0 
   NINTNOI =      0 
   PINTNOI =      0 
   LUTE =      0 
   NUTE =      0 
   PUTE =      0 
   LUTL =      0 
   NUTL =      0 
   PUTL =      0 
   LUA1 =      0 
   NUA1 =      0 
   PUA1 =      0 
   LUD1 =      0 
   NUD1 =      0 
   PUD1 =      0 
   LUCSTE =      0 
   NUCSTE =      0 
   PUCSTE =      0 
   LPTWGT =      0 
   NPTWGT =      0 
   PPTWGT =      0 
   LAT =      0 
   NAT =      0 
   PAT =      0 
   LSTTHETASAT =      0 
   NSTTHETASAT =      0 
   PSTTHETASAT =      0 
   LPRT =      0 
   NPRT =      0 
   PPRT =      0 
   LIIT =      0 
   NIIT =      0 
   PIIT =      0 
   LTII =      0 
   NTII =      0 
   PTII =      0 
   LTGIDL =      0 
   NTGIDL =      0 
   PTGIDL =      0 
   LIGT =      0 
   NIGT =      0 
   PIGT =      0 
   L = 1.8e-08 m
   D =  4e-08 m
   TFIN =  1e-08 m
   FPITCH = 3.2e-08 m
   NF = 1 
   NFIN = 1 
   NGCON = 1 
   ASEO =      0 m^2
   ADEO =      0 m^2
   PSEO =      0 m
   PDEO =      0 m
   ASEJ =      0 m^2
   ADEJ =      0 m^2
   PSEJ =      0 m
   PDEJ =      0 m
   CGSP =      0 F
   CGDP =      0 F
   CDSP =      0 F
   NRS =      0 
   NRD =      0 
   LRSD = 1.8e-08 m
   XL =      0 m
   DELVTRAND =      0 
   U0MULT =      1 
   IDS0MULT =      1 
   Lmin =  1e-08 m
   Lmax =  3e-08 m
   NFINmin = 0 
   NFINmax = 1 
   LVSAT1 =      0 
   NVSAT1 =      0 
   PVSAT1 =      0 
   LETAMOB =      0 
   NETAMOB =      0 
   PETAMOB =      0 
   LPCLMG =      0 
   NPCLMG =      0 
   PPCLMG =      0 
   LVASAT =      0 
   NVASAT =      0 
   PVASAT =      0 
   LAIGBACC =      0 
   NAIGBACC =      0 
   PAIGBACC =      0 
   LBIGBACC =      0 
   NBIGBACC =      0 
   PBIGBACC =      0 
   LCIGBACC =      0 
   NCIGBACC =      0 
   PCIGBACC =      0 
   LNIGBACC =      0 
   NNIGBACC =      0 
   PNIGBACC =      0 
 Model Name: pfet 
 BSIM-MG BULK Model(Level72)
   VERSION = 105.03  
   DEVTYPE = -1 
   BULKMOD = 1  
   COREMOD = 0 
   GEOMOD = 1 
   RDSMOD = 1 
   IGCMOD = 1 
   IGBMOD = 1 
   GIDLMOD = 0 
   IIMOD = 0 
   NQSMOD = 0 
   SHMOD = 0 
   RGATEMOD = 0 
   RGEOMOD = 1 
   CGEOMOD = 2 
   CAPMOD = 0 
   LINT = 2.5e-10 m
   LL =      0 m^(LLN+1)
   LLN =      1 
   DLC =      0 m
   DLBIN =      0 
   LLC =      0 m^(LLN+1)
   EOT = 9.2e-10 m
   TOXP = 1.3e-09 m
   EOTBOX = 1.4e-07 m
   HFIN = 2.3e-08 m
   FECH =      1 
   DELTAW =      0 m
   FECHCV =      1 
   DELTAWCV =      0 m
   NBODY =  5e+22 m^-3
   NSD =  3e+26 m^-3
   PHIG =  4.574 eV
   EPSROX =    3.9 
   EPSRSUB =   11.9 
   EASUB =   4.05 eV
   NI0SUB = 1.1e+16 m^-3
   BG0SUB =   1.12 eV
   NC0SUB = 2.86e+25 m^-3
   NGATE =      0 m^-3
   CIT = 1.3e-05 F/m^2
   CDSC = 0.0216 F/m^2
   CDSCD =  0.007 F/m^2
   CDSCDR =  0.007 
   DVT0 =   0.01 
   DVT1 =   0.69 
   PHIN =   0.05 V
   ETA0 =   0.74 
   ETA0R =   0.74 
   DSUB =    0.9 
   K1RSCE =      0 V^1/2
   LPE0 =  5e-09 m
   DVTSHIFT =      0 
   QMFACTOR =      0 
   QMTCENIV =      0 
   QMTCENCV =      0 
   AQMTCEN =      0 
   BQMTCEN = 1.2e-08 
   ETAQM =   0.54 
   QM0 = 0.001143 
   PQM =   0.66 
   QM0ACC =  0.001 
   PQMACC =   0.66 
   VSAT = 1.05e+05 
   AVSAT =      0 
   BVSAT =  1e-07 
   VSAT1 = 1.05e+05 
   AVSAT1 =      0 
   BVSAT1 =  1e-07 
   DELTAVSAT =      1 
   KSATIV =    0.8 
   MEXP =      3 
   AMEXP =      0 
   BMEXP =      1 
   PTWG =      0 
   APTWG =      0 
   BPTWG =  1e-07 
   AT = -0.00156 
   TMEXP =      0 
   PTWGT =  0.004 
   U0 =  0.033 
   ETAMOB =      2 
   UP =      0 
   LPA =      1 
   UA =    0.3 
   AUA =      0 
   BUA =  1e-07 
   EU =    1.8 
   AEU =      0 
   BEU =  1e-07 
   UD =      0 
   AUD =      0 
   BUD =  5e-08 
   UCS =      0 
   UTE =      0 
   UTL = -0.0015 
   UA1 = 0.001032 
   UD1 =      0 
   UCSTE = -0.00478 
   RDSWMIN =      0 
   RDSW =    100 
   ARDSW =      0 
   BRDSW =  1e-07 
   RSWMIN =      0 
   RSW =      0 
   ARSW =      0 
   BRSW =  1e-07 
   RDWMIN =      0 
   RDW =      0 
   ARDW =      0 
   BRDW =  1e-07 
   PRWG =      0 
   WR =      1 
   PRT =  0.001 
   PDIBL1 =    1.3 
   PDIBL2 = 0.0002 
   DROUT =   1.06 
   PVAG =      1 
   PCLM =    0.2 
   APCLM =      0 
   BPCLM =  1e-07 
   PCLMG =      0 
   VASAT =    0.6 
   PCLMCV =  0.013 
   PCLMGCV =      0 
   VASATCV =    0.2 
   RGEXT =      0 ohm
   RGFIN =  0.001 ohm
   RSHS =      0 ohm
   RSHD =      0 ohm
   HEPI =  9e-09 m
   TSILI =  8e-09 m
   RHOC =  9e-13 ohm/m^2
   RHORSD =      1 ohm/m
   RHOEXT =      1 ohm/m
   CRATIO =    0.5 
   DELTAPRSD =      0 m
   SDTERM = 0 
   LSP = 3.6e-09 m
   LDG = 2.5e-09 m
   EPSRSP =    3.9 
   TGATE = 8.5e-09 m
   TMASK =      0 m
   ASILIEND =      0 m^2
   ARSDEND =      0 m^2
   PRSDEND =      0 m
   NSDE =  6e+25 m^-3
   RGEOA =      1 
   RGEOB =      0 m^-1
   RGEOC =      0 m^-1
   RGEOD =      0 m^-1
   RGEOE =      0 m^-1
   CGEOA =      1 
   CGEOB =      0 m^-1
   CGEOC =      0 m^-1
   CGEOD =      0 m^-1
   CGEOE =      1 
   AIGBINV = 0.0111 (Fs^2/g)^0.5m^-1
   BIGBINV =   0.03 (Fs^2/g)^0.5m^-1
   CIGBINV =  0.006 V^-1
   EIGBINV =    1.1 V
   NIGBINV =    1.2 
   AIGBACC = 0.0149 
   BIGBACC = 0.000949 
   CIGBACC =  0.075 
   NIGBACC =      3 
   AIGC = 0.0136 (Fs^2/g)^0.5m^-1
   BIGC = 0.00171 (Fs^2/g)^0.5m^-1V^-1
   CIGC =  0.075 V^-1
   NIGC =      1 
   DLCIGS =      0 m
   AIGS = 0.0136 (Fs^2/g)^0.5m^-1
   BIGS = 0.00171 (Fs^2/g)^0.5m^-1V^-1
   CIGS =  0.075 V^-1
   DLCIGD =      0 m
   AIGD = 0.0136 (Fs^2/g)^0.5m^-1
   BIGD = 0.00171 (Fs^2/g)^0.5m^-1V^-1
   CIGD =  0.075 V^-1
   POXEDGE =      1 
   AGIDL = 5.729e-12 ohm^-1
   BGIDL =  3e+08 V/m
   EGIDL =    0.1 V
   AGISL = 5.729e-12 ohm^-1
   BGISL =  3e+08 V/m
   EGISL =    0.1 V
   ALPHA0 =      0 mV^-1
   ALPHA1 =      0 V^-1
   BETA0 =     30 V^-1
   ALPHAII =      0 
   BETAII0 =      0 V^-1
   BETAII1 =      0 
   BETAII2 =    0.1 V
   ESATII =  1e+07 V/m
   LII =  5e-10 V/m
   SII0 =    0.5 V^-1
   SII1 =    0.1 
   SII2 =      0 V
   SIID =      0 V
   EOTACC = 9.2e-10 m
   DELVFBACC =      0 V
   CFS = 2.56e-11 F/m
   CFD = 2.65e-11 F/m
   COVS = 2.5e-11 F/m
   COVD = 2.5e-11 F/m
   CGSO =      0 F/m
   CGDO =      0 F/m
   CGSL =      0 F/m
   CGDL =      0 F/m
   CKAPPAS =    0.6 V
   CKAPPAD =    0.6 V
   CGBO =      0 F/m
   CGBL =      0 F/m
   CKAPPAB =    0.6 V
   CSDESW =      0 F/m
   CJS = 0.0005 F/m^2
   CJD = 0.0005 F/m^2
   CJSWS =  5e-10 F/m
   CJSWD =  5e-10 F/m
   CJSWGS =      0 F/m
   CJSWGD =      0 F/m
   PBS =      1 V
   PBD =      1 V
   PBSWS =      1 V
   PBSWD =      1 V
   PBSWGS =      1 V
   PBSWGD =      1 V
   MJS, =    0.5 
   MJD =    0.5 
   MJSWS =   0.33 
   MJSWD =   0.33 
   MJSWGS =   0.33 
   MJSWGD =   0.33 
   SJS =      0 
   SJD =      0 
   SJSWS =      0 
   SJSWD =      0 
   SJSWGS =      0 
   SJSWGD =      0 
   MJS2 =  0.125 
   MJD2 =  0.125 
   MJSWS2 =   0.33 
   MJSWD2 =   0.33 
   MJSWGS2 =   0.33 
   MJSWGD2 =   0.33 
   JSS = 0.0001 A/m^2
   JSD = 0.0001 A/m^2
   JSWS =      0 A/m
   JSWD =      0 A/m
   JSWGS =      0 A/m
   JSWGD =      0 A/m
   NJS =      1 
   NJD =      1 
   IJTHSFWD =    0.1 A
   IJTHDFWD =    0.1 A
   IJTHSREV =    0.1 A
   IJTHDREV =    0.1 A
   BVS =     10 V
   BVD =     10 V
   XJBVS =      1 
   XJBVD =      1 
   JTSS =      0 A/m^2
   JTSD =      0 A/m^2
   JTSSWS =      0 A/m
   JTSSWD =      0 A/m
   JTSSWGS =      0 A/m
   JTSSWGD =      0 A/m
   JTWEFF =      0 m
   NJTS =     20 
   NJTSD =     20 
   NJTSSW =     20 
   NJTSSWD =     20 
   NJTSSWG =     20 
   NJTSSWGD =     20 
   VTSS =     10 V
   VTSD =     10 V
   VTSSWS =     10 V
   VTSSWD =     10 V
   VTSSWGS =     10 V
   VTSSWGD =     10 V
   LINTIGEN =      0 m
   NTGEN =      1 
   AIGEN =      0 m^-3V^-1
   BIGEN =      0 m^-3V^-3
   XRCRG1 =     12 
   XRCRG2 =      1 
   NSEG = 5 
   EF =      1 
   EM = 4.1e+07 V/m
   NOIA = 6.25e+39 eV^-1s^1-EFm^-3
   NOIB = 3.125e+24 eV^-1s^1-EFm^-1
   NOIC = 8.75e+07 eV^-1s^1-EFm
   NTNOI =      1 
   TNOM =  300.1 K
   TBGASUB = 0.000702 eV/K
   TBGBSUB =   1108 K
   KT1 =      0 V
   KT1L =      0 Vm
   IIT =   -0.5 
   TII =      0 
   TGIDL = -0.0003 K^-1
   IGT =    2.5 
   TCJ =      0 K^-1
   TCJSW =      0 K^-1
   TCJSWG =      0 K^-1
   TPB =      0 K^-1
   TPBSW =      0 K^-1
   TPBSWG =      0 K^-1
   XTIS =      3 
   XTID =      3 
   XTSS =   0.02 
   XTSD =   0.02 
   XTSSWS =   0.02 
   XTSSWD =   0.02 
   XTSSWGS =   0.02 
   XTSSWGD =   0.02 
   TNJTS =      0 
   TNJTSD =      0 
   TNJTSSW =      0 
   TNJTSSWD =      0 
   TNJTSSWG =      0 
   TNJTSSWGD =      0 
   RTH0 =   0.01 ohm
   CTH0 =  1e-05 F
   WTH0 =      0 m
   LNBODY =      0 
   NNBODY =      0 
   PNBODY =      0 
   LPHIG =      0 
   NPHIG =      0 
   PPHIG =      0 
   LNGATE =      0 
   NNGATE =      0 
   PNGATE =      0 
   LCIT =      0 
   NCIT =      0 
   PCIT =      0 
   LCDSC =      0 
   NCDSC =      0 
   PCDSC =      0 
   LCDSCD =      0 
   NCDSCD =      0 
   PCDSCD =      0 
   LCDSCDR =      0 
   NCDSCDR =      0 
   PCDSCDR =      0 
   LDVT0 =      0 
   NDVT0 =      0 
   PDVT0 =      0 
   LDVT1 =      0 
   NDVT1 =      0 
   PDVT1 =      0 
   LPHIN =      0 
   NPHIN =      0 
   PPHIN =      0 
   LETA0 =      0 
   NETA0 =      0 
   PETA0 =      0 
   LETA0R =      0 
   NETA0R =      0 
   PETA0R =      0 
   LDSUB =      0 
   NDSUB =      0 
   PDSUB =      0 
   LK1RSCE =      0 
   NK1RSCE =      0 
   PK1RSCE =      0 
   LLPE0 =      0 
   NLPE0 =      0 
   PLPE0 =      0 
   LQMFACTOR =      0 
   NQMFACTOR =      0 
   PQMFACTOR =      0 
   LQMTCENIV =      0 
   NQMTCENIV =      0 
   PQMTCENIV =      0 
   LQMTCENCV =      0 
   NQMTCENCV =      0 
   PQMTCENCV =      0 
   LVSAT =      0 
   NVSAT =      0 
   PVSAT =      0 
   LKSATIV =      0 
   NKSATIV =      0 
   PKSATIV =      0 
   LMEXP =      0 
   NMEXP =      0 
   PMEXP =      0 
   LPTWG =      0 
   NPTWG =      0 
   PPTWG =      0 
   LTHETASAT =      0 
   NTHETASAT =      0 
   PTHETASAT =      0 
   LU0 =      0 
   NU0 =      0 
   PU0 =      0 
   LUP =      0 
   NUP =      0 
   PUP =      0 
   LUA =      0 
   NUA =      0 
   PUA =      0 
   LEU =      0 
   NEU =      0 
   PEU =      0 
   LUD =      0 
   NUD =      0 
   PUD =      0 
   LUCS =      0 
   NUCS =      0 
   PUCS =      0 
   LPCLM =      0 
   NPCLM =      0 
   PPCLM =      0 
   LPCLMCV =      0 
   NPCLMCV =      0 
   PPCLMCV =      0 
   LRDSW =      0 
   NRDSW =      0 
   PRDSW =      0 
   LRSW =      0 
   NRSW =      0 
   PRSW =      0 
   LRDW =      0 
   NRDW =      0 
   PRDW =      0 
   LPRWG =      0 
   NPRWG =      0 
   PPRWG =      0 
   LWR =      0 
   NWR =      0 
   PWR =      0 
   LPDIBL1 =      0 
   NPDIBL1 =      0 
   PPDIBL1 =      0 
   LPDIBL2 =      0 
   NPDIBL2 =      0 
   PPDIBL2 =      0 
   LDROUT =      0 
   NDROUT =      0 
   PDROUT =      0 
   LPVAG =      0 
   NPVAG =      0 
   PPVAG =      0 
   LAIGBINV =      0 
   NAIGBINV =      0 
   PAIGBINV =      0 
   LBIGBINV =      0 
   NBIGBINV =      0 
   PBIGBINV =      0 
   LCIGBINV =      0 
   NCIGBINV =      0 
   PCIGBINV =      0 
   LEIGBINV =      0 
   NEIGBINV =      0 
   PEIGBINV =      0 
   LNIGBINV =      0 
   NNIGBINV =      0 
   PNIGBINV =      0 
   LAIGC =      0 
   NAIGC =      0 
   PAIGC =      0 
   LBIGC =      0 
   NBIGC =      0 
   PBIGC =      0 
   LCIGC =      0 
   NCIGC =      0 
   PCIGC =      0 
   LNIGC =      0 
   NNIGC =      0 
   PNIGC =      0 
   LAIGS =      0 
   NAIGS =      0 
   PAIGS =      0 
   LBIGS =      0 
   NBIGS =      0 
   PBIGS =      0 
   LCIGS =      0 
   NCIGS =      0 
   PCIGS =      0 
   LAIGD =      0 
   NAIGD =      0 
   PAIGD =      0 
   LBIGD =      0 
   NBIGD =      0 
   PBIGD =      0 
   LCIGD =      0 
   NCIGD =      0 
   PCIGD =      0 
   LPOXEDGE =      0 
   NPOXEDGE =      0 
   PPOXEDGE =      0 
   LAGIDL =      0 
   NAGIDL =      0 
   PAGIDL =      0 
   LBGIDL =      0 
   NBGIDL =      0 
   PBGIDL =      0 
   LEGIDL =      0 
   NEGIDL =      0 
   PEGIDL =      0 
   LAGISL =      0 
   NAGISL =      0 
   PAGISL =      0 
   LBGISL =      0 
   NBGISL =      0 
   PBGISL =      0 
   LEGISL =      0 
   NEGISL =      0 
   PEGISL =      0 
   LALPHA0 =      0 
   NALPHA0 =      0 
   PALPHA0 =      0 
   LALPHA1 =      0 
   NALPHA1 =      0 
   PALPHA1 =      0 
   LBETA0 =      0 
   NBETA0 =      0 
   PBETA0 =      0 
   LALPHAII =      0 
   NALPHAII =      0 
   PALPHAII =      0 
   LBETAII0 =      0 
   NBETAII0 =      0 
   PBETAII0 =      0 
   LBETAII1 =      0 
   NBETAII1 =      0 
   PBETAII1 =      0 
   LBETAII2 =      0 
   NBETAII2 =      0 
   PBETAII2 =      0 
   LESATII =      0 
   NESATII =      0 
   PESATII =      0 
   LLII =      0 
   NLII =      0 
   PLII =      0 
   LSII0 =      0 
   NSII0 =      0 
   PSII0 =      0 
   LSII1 =      0 
   NSII1 =      0 
   PSII1 =      0 
   LSII2 =      0 
   NSII2 =      0 
   PSII2 =      0 
   LSIID =      0 
   NSIID =      0 
   PSIID =      0 
   LCFS =      0 
   NCFS =      0 
   PCFS =      0 
   LCFD =      0 
   NCFD =      0 
   PCFD =      0 
   LCOVS =      0 
   NCOVS =      0 
   PCOVS =      0 
   LCOVD =      0 
   NCOVD =      0 
   PCOVD =      0 
   LCGSL =      0 
   NCGSL =      0 
   PCGSL =      0 
   LCGDL =      0 
   NCGDL =      0 
   PCGDL =      0 
   LCKAPPAS =      0 
   NCKAPPAS =      0 
   PCKAPPAS =      0 
   LCKAPPAD =      0 
   NCKAPPAD =      0 
   PCKAPPAD =      0 
   LCGBL =      0 
   NCGBL =      0 
   PCGBL =      0 
   LCKAPPAB =      0 
   NCKAPPAB =      0 
   PCKAPPAB =      0 
   LNTGEN =      0 
   NNTGEN =      0 
   PNTGEN =      0 
   LAIGEN =      0 
   NAIGEN =      0 
   PAIGEN =      0 
   LBIGEN =      0 
   NBIGEN =      0 
   PBIGEN =      0 
   LXRCRG1 =      0 
   NXRCRG1 =      0 
   PXRCRG1 =      0 
   LXRCRG2 =      0 
   NXRCRG2 =      0 
   PXRCRG2 =      0 
   LINTNOI =      0 
   NINTNOI =      0 
   PINTNOI =      0 
   LUTE =      0 
   NUTE =      0 
   PUTE =      0 
   LUTL =      0 
   NUTL =      0 
   PUTL =      0 
   LUA1 =      0 
   NUA1 =      0 
   PUA1 =      0 
   LUD1 =      0 
   NUD1 =      0 
   PUD1 =      0 
   LUCSTE =      0 
   NUCSTE =      0 
   PUCSTE =      0 
   LPTWGT =      0 
   NPTWGT =      0 
   PPTWGT =      0 
   LAT =      0 
   NAT =      0 
   PAT =      0 
   LSTTHETASAT =      0 
   NSTTHETASAT =      0 
   PSTTHETASAT =      0 
   LPRT =      0 
   NPRT =      0 
   PPRT =      0 
   LIIT =      0 
   NIIT =      0 
   PIIT =      0 
   LTII =      0 
   NTII =      0 
   PTII =      0 
   LTGIDL =      0 
   NTGIDL =      0 
   PTGIDL =      0 
   LIGT =      0 
   NIGT =      0 
   PIGT =      0 
   L = 1.8e-08 m
   D =  4e-08 m
   TFIN =  1e-08 m
   FPITCH = 3.2e-08 m
   NF = 1 
   NFIN = 1 
   NGCON = 1 
   ASEO =      0 m^2
   ADEO =      0 m^2
   PSEO =      0 m
   PDEO =      0 m
   ASEJ =      0 m^2
   ADEJ =      0 m^2
   PSEJ =      0 m
   PDEJ =      0 m
   CGSP =      0 F
   CGDP =      0 F
   CDSP =      0 F
   NRS =      0 
   NRD =      0 
   LRSD = 1.8e-08 m
   XL =      0 m
   DELVTRAND =      0 
   U0MULT =      1 
   IDS0MULT =      1 
   Lmin =  1e-08 m
   Lmax =  3e-08 m
   NFINmin = 0 
   NFINmax = 1 
   LVSAT1 =      0 
   NVSAT1 =      0 
   PVSAT1 =      0 
   LETAMOB =      0 
   NETAMOB =      0 
   PETAMOB =      0 
   LPCLMG =      0 
   NPCLMG =      0 
   PPCLMG =      0 
   LVASAT =      0 
   NVASAT =      0 
   PVASAT =      0 
   LAIGBACC =      0 
   NAIGBACC =      0 
   PAIGBACC =      0 
   LBIGBACC =      0 
   NBIGBACC =      0 
   PBIGBACC =      0 
   LCIGBACC =      0 
   NCIGBACC =      0 
   PCIGBACC =      0 
   LNIGBACC =      0 
   NNIGBACC =      0 
   PNIGBACC =      0 
 Model Name: nfet 
 BSIM-MG BULK Model(Level72)
   VERSION = 105.03  
   DEVTYPE = 1 
   BULKMOD = 1  
   COREMOD = 0 
   GEOMOD = 1 
   RDSMOD = 1 
   IGCMOD = 1 
   IGBMOD = 1 
   GIDLMOD = 0 
   IIMOD = 0 
   NQSMOD = 0 
   SHMOD = 0 
   RGATEMOD = 0 
   RGEOMOD = 1 
   CGEOMOD = 2 
   CAPMOD = 0 
   LINT = 2.5e-10 m
   LL =      0 m^(LLN+1)
   LLN =      1 
   DLC =      0 m
   DLBIN =      0 
   LLC =      0 m^(LLN+1)
   EOT = 9.2e-10 m
   TOXP = 1.3e-09 m
   EOTBOX = 1.4e-07 m
   HFIN = 2.3e-08 m
   FECH =      1 
   DELTAW =      0 m
   FECHCV =      1 
   DELTAWCV =      0 m
   NBODY =  5e+22 m^-3
   NSD =  3e+26 m^-3
   PHIG =  4.603 eV
   EPSROX =    3.9 
   EPSRSUB =   11.9 
   EASUB =   4.05 eV
   NI0SUB = 1.1e+16 m^-3
   BG0SUB =   1.12 eV
   NC0SUB = 2.86e+25 m^-3
   NGATE =      0 m^-3
   CIT = 1.3e-05 F/m^2
   CDSC = 0.0216 F/m^2
   CDSCD =  0.007 F/m^2
   CDSCDR =  0.007 
   DVT0 =   0.01 
   DVT1 =   0.69 
   PHIN =   0.05 V
   ETA0 = 0.5141 
   ETA0R = 0.5141 
   DSUB =    0.9 
   K1RSCE =      0 V^1/2
   LPE0 =  5e-09 m
   DVTSHIFT =      0 
   QMFACTOR =      0 
   QMTCENIV =      0 
   QMTCENCV =      0 
   AQMTCEN =      0 
   BQMTCEN = 1.2e-08 
   ETAQM =   0.54 
   QM0 = 0.001143 
   PQM =   0.66 
   QM0ACC =  0.001 
   PQMACC =   0.66 
   VSAT = 1.1e+05 
   AVSAT =      0 
   BVSAT =  1e-07 
   VSAT1 = 1.1e+05 
   AVSAT1 =      0 
   BVSAT1 =  1e-07 
   DELTAVSAT =      1 
   KSATIV =    0.8 
   MEXP =      3 
   AMEXP =      0 
   BMEXP =      1 
   PTWG =      0 
   APTWG =      0 
   BPTWG =  1e-07 
   AT = -0.00156 
   TMEXP =      0 
   PTWGT =  0.004 
   U0 =  0.052 
   ETAMOB =      2 
   UP =      0 
   LPA =      1 
   UA =    0.3 
   AUA =      0 
   BUA =  1e-07 
   EU =    1.8 
   AEU =      0 
   BEU =  1e-07 
   UD =      0 
   AUD =      0 
   BUD =  5e-08 
   UCS =      0 
   UTE =      0 
   UTL = -0.0015 
   UA1 = 0.001032 
   UD1 =      0 
   UCSTE = -0.00478 
   RDSWMIN =      0 
   RDSW =    100 
   ARDSW =      0 
   BRDSW =  1e-07 
   RSWMIN =      0 
   RSW =      0 
   ARSW =      0 
   BRSW =  1e-07 
   RDWMIN =      0 
   RDW =      0 
   ARDW =      0 
   BRDW =  1e-07 
   PRWG =      0 
   WR =      1 
   PRT =  0.001 
   PDIBL1 =    1.3 
   PDIBL2 = 0.0002 
   DROUT =   1.06 
   PVAG =      1 
   PCLM =    0.2 
   APCLM =      0 
   BPCLM =  1e-07 
   PCLMG =      0 
   VASAT =    0.6 
   PCLMCV =  0.013 
   PCLMGCV =      0 
   VASATCV =    0.2 
   RGEXT =      0 ohm
   RGFIN =  0.001 ohm
   RSHS =      0 ohm
   RSHD =      0 ohm
   HEPI =  9e-09 m
   TSILI =  8e-09 m
   RHOC =  8e-13 ohm/m^2
   RHORSD =      1 ohm/m
   RHOEXT =      1 ohm/m
   CRATIO =    0.5 
   DELTAPRSD =      0 m
   SDTERM = 0 
   LSP = 3.6e-09 m
   LDG = 2.5e-09 m
   EPSRSP =    3.9 
   TGATE = 8.5e-09 m
   TMASK =      0 m
   ASILIEND =      0 m^2
   ARSDEND =      0 m^2
   PRSDEND =      0 m
   NSDE =  6e+25 m^-3
   RGEOA =      1 
   RGEOB =      0 m^-1
   RGEOC =      0 m^-1
   RGEOD =      0 m^-1
   RGEOE =      0 m^-1
   CGEOA =      1 
   CGEOB =      0 m^-1
   CGEOC =      0 m^-1
   CGEOD =      0 m^-1
   CGEOE =      1 
   AIGBINV = 0.0111 (Fs^2/g)^0.5m^-1
   BIGBINV =   0.03 (Fs^2/g)^0.5m^-1
   CIGBINV =  0.006 V^-1
   EIGBINV =    1.1 V
   NIGBINV =    1.2 
   AIGBACC = 0.0149 
   BIGBACC = 0.000949 
   CIGBACC =  0.075 
   NIGBACC =      3 
   AIGC = 0.0136 (Fs^2/g)^0.5m^-1
   BIGC = 0.00171 (Fs^2/g)^0.5m^-1V^-1
   CIGC =  0.075 V^-1
   NIGC =      1 
   DLCIGS =      0 m
   AIGS = 0.0136 (Fs^2/g)^0.5m^-1
   BIGS = 0.00171 (Fs^2/g)^0.5m^-1V^-1
   CIGS =  0.075 V^-1
   DLCIGD =      0 m
   AIGD = 0.0136 (Fs^2/g)^0.5m^-1
   BIGD = 0.00171 (Fs^2/g)^0.5m^-1V^-1
   CIGD =  0.075 V^-1
   POXEDGE =      1 
   AGIDL = 5.729e-12 ohm^-1
   BGIDL =  3e+08 V/m
   EGIDL =    0.1 V
   AGISL = 5.729e-12 ohm^-1
   BGISL =  3e+08 V/m
   EGISL =    0.1 V
   ALPHA0 =      0 mV^-1
   ALPHA1 =      0 V^-1
   BETA0 =     30 V^-1
   ALPHAII =      0 
   BETAII0 =      0 V^-1
   BETAII1 =      0 
   BETAII2 =    0.1 V
   ESATII =  1e+07 V/m
   LII =  5e-10 V/m
   SII0 =    0.5 V^-1
   SII1 =    0.1 
   SII2 =      0 V
   SIID =      0 V
   EOTACC = 9.2e-10 m
   DELVFBACC =      0 V
   CFS = 2.56e-11 F/m
   CFD = 2.65e-11 F/m
   COVS = 2.5e-11 F/m
   COVD = 2.5e-11 F/m
   CGSO =      0 F/m
   CGDO =      0 F/m
   CGSL =      0 F/m
   CGDL =      0 F/m
   CKAPPAS =    0.6 V
   CKAPPAD =    0.6 V
   CGBO =      0 F/m
   CGBL =      0 F/m
   CKAPPAB =    0.6 V
   CSDESW =      0 F/m
   CJS = 0.0005 F/m^2
   CJD = 0.0005 F/m^2
   CJSWS =  5e-10 F/m
   CJSWD =  5e-10 F/m
   CJSWGS =      0 F/m
   CJSWGD =      0 F/m
   PBS =      1 V
   PBD =      1 V
   PBSWS =      1 V
   PBSWD =      1 V
   PBSWGS =      1 V
   PBSWGD =      1 V
   MJS, =    0.5 
   MJD =    0.5 
   MJSWS =   0.33 
   MJSWD =   0.33 
   MJSWGS =   0.33 
   MJSWGD =   0.33 
   SJS =      0 
   SJD =      0 
   SJSWS =      0 
   SJSWD =      0 
   SJSWGS =      0 
   SJSWGD =      0 
   MJS2 =  0.125 
   MJD2 =  0.125 
   MJSWS2 =   0.33 
   MJSWD2 =   0.33 
   MJSWGS2 =   0.33 
   MJSWGD2 =   0.33 
   JSS = 0.0001 A/m^2
   JSD = 0.0001 A/m^2
   JSWS =      0 A/m
   JSWD =      0 A/m
   JSWGS =      0 A/m
   JSWGD =      0 A/m
   NJS =      1 
   NJD =      1 
   IJTHSFWD =    0.1 A
   IJTHDFWD =    0.1 A
   IJTHSREV =    0.1 A
   IJTHDREV =    0.1 A
   BVS =     10 V
   BVD =     10 V
   XJBVS =      1 
   XJBVD =      1 
   JTSS =      0 A/m^2
   JTSD =      0 A/m^2
   JTSSWS =      0 A/m
   JTSSWD =      0 A/m
   JTSSWGS =      0 A/m
   JTSSWGD =      0 A/m
   JTWEFF =      0 m
   NJTS =     20 
   NJTSD =     20 
   NJTSSW =     20 
   NJTSSWD =     20 
   NJTSSWG =     20 
   NJTSSWGD =     20 
   VTSS =     10 V
   VTSD =     10 V
   VTSSWS =     10 V
   VTSSWD =     10 V
   VTSSWGS =     10 V
   VTSSWGD =     10 V
   LINTIGEN =      0 m
   NTGEN =      1 
   AIGEN =      0 m^-3V^-1
   BIGEN =      0 m^-3V^-3
   XRCRG1 =     12 
   XRCRG2 =      1 
   NSEG = 5 
   EF =      1 
   EM = 4.1e+07 V/m
   NOIA = 6.25e+39 eV^-1s^1-EFm^-3
   NOIB = 3.125e+24 eV^-1s^1-EFm^-1
   NOIC = 8.75e+07 eV^-1s^1-EFm
   NTNOI =      1 
   TNOM =  300.1 K
   TBGASUB = 0.000702 eV/K
   TBGBSUB =   1108 K
   KT1 =      0 V
   KT1L =      0 Vm
   IIT =   -0.5 
   TII =      0 
   TGIDL = -0.0003 K^-1
   IGT =    2.5 
   TCJ =      0 K^-1
   TCJSW =      0 K^-1
   TCJSWG =      0 K^-1
   TPB =      0 K^-1
   TPBSW =      0 K^-1
   TPBSWG =      0 K^-1
   XTIS =      3 
   XTID =      3 
   XTSS =   0.02 
   XTSD =   0.02 
   XTSSWS =   0.02 
   XTSSWD =   0.02 
   XTSSWGS =   0.02 
   XTSSWGD =   0.02 
   TNJTS =      0 
   TNJTSD =      0 
   TNJTSSW =      0 
   TNJTSSWD =      0 
   TNJTSSWG =      0 
   TNJTSSWGD =      0 
   RTH0 =   0.01 ohm
   CTH0 =  1e-05 F
   WTH0 =      0 m
   LNBODY =      0 
   NNBODY =      0 
   PNBODY =      0 
   LPHIG =      0 
   NPHIG =      0 
   PPHIG =      0 
   LNGATE =      0 
   NNGATE =      0 
   PNGATE =      0 
   LCIT =      0 
   NCIT =      0 
   PCIT =      0 
   LCDSC =      0 
   NCDSC =      0 
   PCDSC =      0 
   LCDSCD =      0 
   NCDSCD =      0 
   PCDSCD =      0 
   LCDSCDR =      0 
   NCDSCDR =      0 
   PCDSCDR =      0 
   LDVT0 =      0 
   NDVT0 =      0 
   PDVT0 =      0 
   LDVT1 =      0 
   NDVT1 =      0 
   PDVT1 =      0 
   LPHIN =      0 
   NPHIN =      0 
   PPHIN =      0 
   LETA0 =      0 
   NETA0 =      0 
   PETA0 =      0 
   LETA0R =      0 
   NETA0R =      0 
   PETA0R =      0 
   LDSUB =      0 
   NDSUB =      0 
   PDSUB =      0 
   LK1RSCE =      0 
   NK1RSCE =      0 
   PK1RSCE =      0 
   LLPE0 =      0 
   NLPE0 =      0 
   PLPE0 =      0 
   LQMFACTOR =      0 
   NQMFACTOR =      0 
   PQMFACTOR =      0 
   LQMTCENIV =      0 
   NQMTCENIV =      0 
   PQMTCENIV =      0 
   LQMTCENCV =      0 
   NQMTCENCV =      0 
   PQMTCENCV =      0 
   LVSAT =      0 
   NVSAT =      0 
   PVSAT =      0 
   LKSATIV =      0 
   NKSATIV =      0 
   PKSATIV =      0 
   LMEXP =      0 
   NMEXP =      0 
   PMEXP =      0 
   LPTWG =      0 
   NPTWG =      0 
   PPTWG =      0 
   LTHETASAT =      0 
   NTHETASAT =      0 
   PTHETASAT =      0 
   LU0 =      0 
   NU0 =      0 
   PU0 =      0 
   LUP =      0 
   NUP =      0 
   PUP =      0 
   LUA =      0 
   NUA =      0 
   PUA =      0 
   LEU =      0 
   NEU =      0 
   PEU =      0 
   LUD =      0 
   NUD =      0 
   PUD =      0 
   LUCS =      0 
   NUCS =      0 
   PUCS =      0 
   LPCLM =      0 
   NPCLM =      0 
   PPCLM =      0 
   LPCLMCV =      0 
   NPCLMCV =      0 
   PPCLMCV =      0 
   LRDSW =      0 
   NRDSW =      0 
   PRDSW =      0 
   LRSW =      0 
   NRSW =      0 
   PRSW =      0 
   LRDW =      0 
   NRDW =      0 
   PRDW =      0 
   LPRWG =      0 
   NPRWG =      0 
   PPRWG =      0 
   LWR =      0 
   NWR =      0 
   PWR =      0 
   LPDIBL1 =      0 
   NPDIBL1 =      0 
   PPDIBL1 =      0 
   LPDIBL2 =      0 
   NPDIBL2 =      0 
   PPDIBL2 =      0 
   LDROUT =      0 
   NDROUT =      0 
   PDROUT =      0 
   LPVAG =      0 
   NPVAG =      0 
   PPVAG =      0 
   LAIGBINV =      0 
   NAIGBINV =      0 
   PAIGBINV =      0 
   LBIGBINV =      0 
   NBIGBINV =      0 
   PBIGBINV =      0 
   LCIGBINV =      0 
   NCIGBINV =      0 
   PCIGBINV =      0 
   LEIGBINV =      0 
   NEIGBINV =      0 
   PEIGBINV =      0 
   LNIGBINV =      0 
   NNIGBINV =      0 
   PNIGBINV =      0 
   LAIGC =      0 
   NAIGC =      0 
   PAIGC =      0 
   LBIGC =      0 
   NBIGC =      0 
   PBIGC =      0 
   LCIGC =      0 
   NCIGC =      0 
   PCIGC =      0 
   LNIGC =      0 
   NNIGC =      0 
   PNIGC =      0 
   LAIGS =      0 
   NAIGS =      0 
   PAIGS =      0 
   LBIGS =      0 
   NBIGS =      0 
   PBIGS =      0 
   LCIGS =      0 
   NCIGS =      0 
   PCIGS =      0 
   LAIGD =      0 
   NAIGD =      0 
   PAIGD =      0 
   LBIGD =      0 
   NBIGD =      0 
   PBIGD =      0 
   LCIGD =      0 
   NCIGD =      0 
   PCIGD =      0 
   LPOXEDGE =      0 
   NPOXEDGE =      0 
   PPOXEDGE =      0 
   LAGIDL =      0 
   NAGIDL =      0 
   PAGIDL =      0 
   LBGIDL =      0 
   NBGIDL =      0 
   PBGIDL =      0 
   LEGIDL =      0 
   NEGIDL =      0 
   PEGIDL =      0 
   LAGISL =      0 
   NAGISL =      0 
   PAGISL =      0 
   LBGISL =      0 
   NBGISL =      0 
   PBGISL =      0 
   LEGISL =      0 
   NEGISL =      0 
   PEGISL =      0 
   LALPHA0 =      0 
   NALPHA0 =      0 
   PALPHA0 =      0 
   LALPHA1 =      0 
   NALPHA1 =      0 
   PALPHA1 =      0 
   LBETA0 =      0 
   NBETA0 =      0 
   PBETA0 =      0 
   LALPHAII =      0 
   NALPHAII =      0 
   PALPHAII =      0 
   LBETAII0 =      0 
   NBETAII0 =      0 
   PBETAII0 =      0 
   LBETAII1 =      0 
   NBETAII1 =      0 
   PBETAII1 =      0 
   LBETAII2 =      0 
   NBETAII2 =      0 
   PBETAII2 =      0 
   LESATII =      0 
   NESATII =      0 
   PESATII =      0 
   LLII =      0 
   NLII =      0 
   PLII =      0 
   LSII0 =      0 
   NSII0 =      0 
   PSII0 =      0 
   LSII1 =      0 
   NSII1 =      0 
   PSII1 =      0 
   LSII2 =      0 
   NSII2 =      0 
   PSII2 =      0 
   LSIID =      0 
   NSIID =      0 
   PSIID =      0 
   LCFS =      0 
   NCFS =      0 
   PCFS =      0 
   LCFD =      0 
   NCFD =      0 
   PCFD =      0 
   LCOVS =      0 
   NCOVS =      0 
   PCOVS =      0 
   LCOVD =      0 
   NCOVD =      0 
   PCOVD =      0 
   LCGSL =      0 
   NCGSL =      0 
   PCGSL =      0 
   LCGDL =      0 
   NCGDL =      0 
   PCGDL =      0 
   LCKAPPAS =      0 
   NCKAPPAS =      0 
   PCKAPPAS =      0 
   LCKAPPAD =      0 
   NCKAPPAD =      0 
   PCKAPPAD =      0 
   LCGBL =      0 
   NCGBL =      0 
   PCGBL =      0 
   LCKAPPAB =      0 
   NCKAPPAB =      0 
   PCKAPPAB =      0 
   LNTGEN =      0 
   NNTGEN =      0 
   PNTGEN =      0 
   LAIGEN =      0 
   NAIGEN =      0 
   PAIGEN =      0 
   LBIGEN =      0 
   NBIGEN =      0 
   PBIGEN =      0 
   LXRCRG1 =      0 
   NXRCRG1 =      0 
   PXRCRG1 =      0 
   LXRCRG2 =      0 
   NXRCRG2 =      0 
   PXRCRG2 =      0 
   LINTNOI =      0 
   NINTNOI =      0 
   PINTNOI =      0 
   LUTE =      0 
   NUTE =      0 
   PUTE =      0 
   LUTL =      0 
   NUTL =      0 
   PUTL =      0 
   LUA1 =      0 
   NUA1 =      0 
   PUA1 =      0 
   LUD1 =      0 
   NUD1 =      0 
   PUD1 =      0 
   LUCSTE =      0 
   NUCSTE =      0 
   PUCSTE =      0 
   LPTWGT =      0 
   NPTWGT =      0 
   PPTWGT =      0 
   LAT =      0 
   NAT =      0 
   PAT =      0 
   LSTTHETASAT =      0 
   NSTTHETASAT =      0 
   PSTTHETASAT =      0 
   LPRT =      0 
   NPRT =      0 
   PPRT =      0 
   LIIT =      0 
   NIIT =      0 
   PIIT =      0 
   LTII =      0 
   NTII =      0 
   PTII =      0 
   LTGIDL =      0 
   NTGIDL =      0 
   PTGIDL =      0 
   LIGT =      0 
   NIGT =      0 
   PIGT =      0 
   L = 1.8e-08 m
   D =  4e-08 m
   TFIN =  1e-08 m
   FPITCH = 3.2e-08 m
   NF = 1 
   NFIN = 1 
   NGCON = 1 
   ASEO =      0 m^2
   ADEO =      0 m^2
   PSEO =      0 m
   PDEO =      0 m
   ASEJ =      0 m^2
   ADEJ =      0 m^2
   PSEJ =      0 m
   PDEJ =      0 m
   CGSP =      0 F
   CGDP =      0 F
   CDSP =      0 F
   NRS =      0 
   NRD =      0 
   LRSD = 1.8e-08 m
   XL =      0 m
   DELVTRAND =      0 
   U0MULT =      1 
   IDS0MULT =      1 
   Lmin =  1e-08 m
   Lmax =  3e-08 m
   NFINmin = 0 
   NFINmax = 1 
   LVSAT1 =      0 
   NVSAT1 =      0 
   PVSAT1 =      0 
   LETAMOB =      0 
   NETAMOB =      0 
   PETAMOB =      0 
   LPCLMG =      0 
   NPCLMG =      0 
   PPCLMG =      0 
   LVASAT =      0 
   NVASAT =      0 
   PVASAT =      0 
   LAIGBACC =      0 
   NAIGBACC =      0 
   PAIGBACC =      0 
   LBIGBACC =      0 
   NBIGBACC =      0 
   PBIGBACC =      0 
   LCIGBACC =      0 
   NCIGBACC =      0 
   PCIGBACC =      0 
   LNIGBACC =      0 
   NNIGBACC =      0 
   PNIGBACC =      0 
  **info** (ptm14lstp.sp:15) DC voltage reset to initial transient source value              in source        0:vin_0               new dc=  0.8000D+00
  
      
 **info** set option symb=1 internally to help for convergence.
 *****************************************************************
 ******  option summary
 ******
 runlvl  = 3         bypass  = 2         
  Opening plot unit= 15
 file=ptm14lstp.pa0                                                            

1****** HSPICE -- F-2011.09-SP2 64-BIT (Feb 27 2012) linux ******               
 ******  
 $ netlist of inverter

  ******  operating point information tnom=  25.000 temp=  25.000 *****
 ***** operating point status is voltage   simulation time is   0.000e+00
     node    =voltage       node    =voltage       node    =voltage

 + 0:inb_0   = 8.000e-01  0:outb_00 = 5.070e-08  0:outb_01 = 5.070e-08
 + 0:outb_02 = 5.070e-08  0:outb_03 = 5.070e-08  0:outin_00= 5.071e-08
 + 0:outin_10= 8.000e-01  0:vdd     = 8.000e-01

 ******  
 $ netlist of inverter

  ******  transient analysis tnom=  25.000 temp=  25.000 *****
 model_uut_peak_power00= 3.2767e-05    at= 3.9820e-12
             from= 0.0000e+00    to= 2.0000e-09
 model_uut_avg_power00= 1.7679e-07  from= 0.0000e+00     to= 2.0000e-09
 uut_peak_power= 3.2767e-05    at= 3.9820e-12
             from= 0.0000e+00    to= 2.0000e-09
 uut_avg_power= 1.7679e-07  from= 0.0000e+00     to= 2.0000e-09
 source_peak_power= 4.5858e-05    at= 1.0021e-09
             from= 0.0000e+00    to= 2.0000e-09
 source_avg_power= 3.1667e-07  from= 0.0000e+00     to= 2.0000e-09
 trf_delay_001= 4.6487e-12  targ= 6.5761e-12   trig= 1.9274e-12
 tfr_delay_001= 4.9307e-12  targ= 1.0083e-09   trig= 1.0033e-09
x

        time    voltage      voltage    
                 outin_00     outin_10  
  0.0000e+00    0.000e+00    8.000e-01  
  1.0000e-12    6.872e-02    8.049e-01  
  2.0000e-12    4.237e-01    8.303e-01  
  3.0000e-12    6.923e-01    8.031e-01  
  4.0000e-12    7.813e-01    7.119e-01  
  5.0000e-12    7.863e-01    5.977e-01  
  6.0000e-12    7.852e-01    4.748e-01  
  7.0000e-12    7.850e-01    3.559e-01  
  8.0000e-12    7.897e-01    2.845e-01  
  9.0000e-12    7.967e-01    2.549e-01  
  1.0000e-11    7.983e-01    2.381e-01  
  1.1000e-11    7.944e-01    1.878e-01  
  1.2000e-11    7.910e-01    1.295e-01  
  1.3000e-11    7.905e-01    7.122e-02  
  1.4000e-11    7.938e-01    3.589e-02  
  1.5000e-11    7.968e-01    1.318e-02  
  1.6000e-11    7.992e-01    6.456e-03  
  1.7000e-11    7.994e-01    3.449e-03  
  1.8000e-11    7.996e-01    4.428e-04  
  1.9000e-11    7.999e-01    3.438e-04  
  2.0000e-11    8.001e-01    5.433e-04  
  2.1000e-11    8.001e-01    3.732e-04  
  2.2000e-11    8.000e-01    1.269e-04  
  2.3000e-11    7.999e-01   -1.194e-04  
  2.4000e-11    7.999e-01   -3.658e-04  
  2.5000e-11    7.999e-01   -3.759e-04  
  2.6000e-11    7.999e-01   -1.943e-04  
  2.7000e-11    8.000e-01   -1.270e-05  
  2.8000e-11    8.001e-01    1.689e-04  
  2.9000e-11    8.001e-01    3.505e-04  
  3.0000e-11    8.001e-01    3.969e-04  
  3.1000e-11    8.001e-01    3.003e-04  
  3.2000e-11    8.001e-01    2.037e-04  
  3.3000e-11    8.000e-01    1.071e-04  
  3.4000e-11    8.000e-01    1.045e-05  
  3.5000e-11    8.000e-01   -8.617e-05  
  3.6000e-11    7.999e-01   -1.828e-04  
  3.7000e-11    7.999e-01   -2.794e-04  
  3.8000e-11    7.999e-01   -3.760e-04  
  3.9000e-11    7.999e-01   -4.023e-04  
  4.0000e-11    7.999e-01   -3.331e-04  
  4.1000e-11    7.999e-01   -2.640e-04  
  4.2000e-11    7.999e-01   -1.948e-04  
  4.3000e-11    8.000e-01   -1.256e-04  
  4.4000e-11    8.000e-01   -5.640e-05  
  4.5000e-11    8.000e-01    1.279e-05  
  4.6000e-11    8.000e-01    8.198e-05  
  4.7000e-11    8.001e-01    1.512e-04  
  4.8000e-11    8.001e-01    2.203e-04  
  4.9000e-11    8.001e-01    2.895e-04  
  5.0000e-11    8.001e-01    3.587e-04  
  5.1000e-11    8.001e-01    4.211e-04  
  5.2000e-11    8.001e-01    3.716e-04  
  5.3000e-11    8.001e-01    3.221e-04  
  5.4000e-11    8.001e-01    2.726e-04  
  5.5000e-11    8.001e-01    2.231e-04  
  5.6000e-11    8.001e-01    1.736e-04  
  5.7000e-11    8.000e-01    1.241e-04  
  5.8000e-11    8.000e-01    7.458e-05  
  5.9000e-11    8.000e-01    2.508e-05  
  6.0000e-11    8.000e-01   -2.441e-05  
  6.1000e-11    8.000e-01   -7.391e-05  
  6.2000e-11    8.000e-01   -1.234e-04  
  6.3000e-11    7.999e-01   -1.729e-04  
  6.4000e-11    7.999e-01   -2.224e-04  
  6.5000e-11    7.999e-01   -2.719e-04  
  6.6000e-11    7.999e-01   -3.214e-04  
  6.7000e-11    7.999e-01   -3.709e-04  
  6.8000e-11    7.999e-01   -4.174e-04  
  6.9000e-11    7.999e-01   -3.816e-04  
  7.0000e-11    7.999e-01   -3.458e-04  
  7.1000e-11    7.999e-01   -3.099e-04  
  7.2000e-11    7.999e-01   -2.741e-04  
  7.3000e-11    7.999e-01   -2.383e-04  
  7.4000e-11    7.999e-01   -2.024e-04  
  7.5000e-11    7.999e-01   -1.666e-04  
  7.6000e-11    8.000e-01   -1.308e-04  
  7.7000e-11    8.000e-01   -9.496e-05  
  7.8000e-11    8.000e-01   -5.913e-05  
  7.9000e-11    8.000e-01   -2.330e-05  
  8.0000e-11    8.000e-01    1.252e-05  
  8.1000e-11    8.000e-01    4.835e-05  
  8.2000e-11    8.000e-01    8.418e-05  
  8.3000e-11    8.000e-01    1.200e-04  
  8.4000e-11    8.001e-01    1.558e-04  
  8.5000e-11    8.001e-01    1.917e-04  
  8.6000e-11    8.001e-01    2.275e-04  
  8.7000e-11    8.001e-01    2.633e-04  
  8.8000e-11    8.001e-01    2.992e-04  
  8.9000e-11    8.001e-01    3.350e-04  
  9.0000e-11    8.001e-01    3.708e-04  
  9.1000e-11    8.001e-01    4.066e-04  
  9.2000e-11    8.001e-01    3.932e-04  
  9.3000e-11    8.001e-01    3.649e-04  
  9.4000e-11    8.001e-01    3.366e-04  
  9.5000e-11    8.001e-01    3.083e-04  
  9.6000e-11    8.001e-01    2.800e-04  
  9.7000e-11    8.001e-01    2.517e-04  
  9.8000e-11    8.001e-01    2.233e-04  
  9.9000e-11    8.001e-01    1.950e-04  
  1.0000e-10    8.001e-01    1.667e-04  
  1.0100e-10    8.000e-01    1.384e-04  
  1.0200e-10    8.000e-01    1.101e-04  
  1.0300e-10    8.000e-01    8.178e-05  
  1.0400e-10    8.000e-01    5.347e-05  
  1.0500e-10    8.000e-01    2.516e-05  
  1.0600e-10    8.000e-01   -3.150e-06  
  1.0700e-10    8.000e-01   -3.146e-05  
  1.0800e-10    8.000e-01   -5.977e-05  
  1.0900e-10    8.000e-01   -8.808e-05  
  1.1000e-10    8.000e-01   -1.164e-04  
  1.1100e-10    7.999e-01   -1.447e-04  
  1.1200e-10    7.999e-01   -1.730e-04  
  1.1300e-10    7.999e-01   -2.013e-04  
  1.1400e-10    7.999e-01   -2.296e-04  
  1.1500e-10    7.999e-01   -2.580e-04  
  1.1600e-10    7.999e-01   -2.863e-04  
  1.1700e-10    7.999e-01   -3.146e-04  
  1.1800e-10    7.999e-01   -3.429e-04  
  1.1900e-10    7.999e-01   -3.712e-04  
  1.2000e-10    7.999e-01   -3.995e-04  
  1.2100e-10    7.999e-01   -3.996e-04  
  1.2200e-10    7.999e-01   -3.772e-04  
  1.2300e-10    7.999e-01   -3.548e-04  
  1.2400e-10    7.999e-01   -3.323e-04  
  1.2500e-10    7.999e-01   -3.099e-04  
  1.2600e-10    7.999e-01   -2.875e-04  
  1.2700e-10    7.999e-01   -2.650e-04  
  1.2800e-10    7.999e-01   -2.426e-04  
  1.2900e-10    7.999e-01   -2.202e-04  
  1.3000e-10    7.999e-01   -1.977e-04  
  1.3100e-10    7.999e-01   -1.753e-04  
  1.3200e-10    7.999e-01   -1.529e-04  
  1.3300e-10    8.000e-01   -1.304e-04  
  1.3400e-10    8.000e-01   -1.080e-04  
  1.3500e-10    8.000e-01   -8.559e-05  
  1.3600e-10    8.000e-01   -6.316e-05  
  1.3700e-10    8.000e-01   -4.072e-05  
  1.3800e-10    8.000e-01   -1.829e-05  
  1.3900e-10    8.000e-01    4.138e-06  
  1.4000e-10    8.000e-01    2.657e-05  
  1.4100e-10    8.000e-01    4.900e-05  
  1.4200e-10    8.000e-01    7.143e-05  
  1.4300e-10    8.000e-01    9.386e-05  
  1.4400e-10    8.000e-01    1.163e-04  
  1.4500e-10    8.000e-01    1.387e-04  
  1.4600e-10    8.001e-01    1.612e-04  
  1.4700e-10    8.001e-01    1.836e-04  
  1.4800e-10    8.001e-01    2.060e-04  
  1.4900e-10    8.001e-01    2.285e-04  
  1.5000e-10    8.001e-01    2.509e-04  
  1.5100e-10    8.001e-01    2.733e-04  
  1.5200e-10    8.001e-01    2.957e-04  
  1.5300e-10    8.001e-01    3.182e-04  
  1.5400e-10    8.001e-01    3.406e-04  
  1.5500e-10    8.001e-01    3.630e-04  
  1.5600e-10    8.001e-01    3.855e-04  
  1.5700e-10    8.001e-01    4.079e-04  
  1.5800e-10    8.001e-01    3.928e-04  
  1.5900e-10    8.001e-01    3.743e-04  
  1.6000e-10    8.001e-01    3.557e-04  
  1.6100e-10    8.001e-01    3.372e-04  
  1.6200e-10    8.001e-01    3.186e-04  
  1.6300e-10    8.001e-01    3.001e-04  
  1.6400e-10    8.001e-01    2.815e-04  
  1.6500e-10    8.001e-01    2.629e-04  
  1.6600e-10    8.001e-01    2.444e-04  
  1.6700e-10    8.001e-01    2.258e-04  
  1.6800e-10    8.001e-01    2.073e-04  
  1.6900e-10    8.001e-01    1.887e-04  
  1.7000e-10    8.001e-01    1.701e-04  
  1.7100e-10    8.001e-01    1.516e-04  
  1.7200e-10    8.000e-01    1.330e-04  
  1.7300e-10    8.000e-01    1.145e-04  
  1.7400e-10    8.000e-01    9.590e-05  
  1.7500e-10    8.000e-01    7.734e-05  
  1.7600e-10    8.000e-01    5.879e-05  
  1.7700e-10    8.000e-01    4.023e-05  
  1.7800e-10    8.000e-01    2.167e-05  
  1.7900e-10    8.000e-01    3.108e-06  
  1.8000e-10    8.000e-01   -1.545e-05  
  1.8100e-10    8.000e-01   -3.401e-05  
  1.8200e-10    8.000e-01   -5.257e-05  
  1.8300e-10    8.000e-01   -7.113e-05  
  1.8400e-10    8.000e-01   -8.969e-05  
  1.8500e-10    8.000e-01   -1.082e-04  
  1.8600e-10    8.000e-01   -1.268e-04  
  1.8700e-10    7.999e-01   -1.454e-04  
  1.8800e-10    7.999e-01   -1.639e-04  
  1.8900e-10    7.999e-01   -1.825e-04  
  1.9000e-10    7.999e-01   -2.010e-04  
  1.9100e-10    7.999e-01   -2.196e-04  
  1.9200e-10    7.999e-01   -2.382e-04  
  1.9300e-10    7.999e-01   -2.567e-04  
  1.9400e-10    7.999e-01   -2.753e-04  
  1.9500e-10    7.999e-01   -2.938e-04  
  1.9600e-10    7.999e-01   -3.124e-04  
  1.9700e-10    7.999e-01   -3.310e-04  
  1.9800e-10    7.999e-01   -3.495e-04  
  1.9900e-10    7.999e-01   -3.681e-04  
  2.0000e-10    7.999e-01   -3.866e-04  
  2.0100e-10    7.999e-01   -4.052e-04  
  2.0200e-10    7.999e-01   -3.946e-04  
  2.0300e-10    7.999e-01   -3.789e-04  
  2.0400e-10    7.999e-01   -3.631e-04  
  2.0500e-10    7.999e-01   -3.473e-04  
  2.0600e-10    7.999e-01   -3.316e-04  
  2.0700e-10    7.999e-01   -3.158e-04  
  2.0800e-10    7.999e-01   -3.001e-04  
  2.0900e-10    7.999e-01   -2.843e-04  
  2.1000e-10    7.999e-01   -2.686e-04  
  2.1100e-10    7.999e-01   -2.528e-04  
  2.1200e-10    7.999e-01   -2.371e-04  
  2.1300e-10    7.999e-01   -2.213e-04  
  2.1400e-10    7.999e-01   -2.056e-04  
  2.1500e-10    7.999e-01   -1.898e-04  
  2.1600e-10    7.999e-01   -1.741e-04  
  2.1700e-10    7.999e-01   -1.583e-04  
  2.1800e-10    7.999e-01   -1.426e-04  
  2.1900e-10    8.000e-01   -1.268e-04  
  2.2000e-10    8.000e-01   -1.110e-04  
  2.2100e-10    8.000e-01   -9.529e-05  
  2.2200e-10    8.000e-01   -7.954e-05  
  2.2300e-10    8.000e-01   -6.378e-05  
  2.2400e-10    8.000e-01   -4.803e-05  
  2.2500e-10    8.000e-01   -3.228e-05  
  2.2600e-10    8.000e-01   -1.652e-05  
  2.2700e-10    8.000e-01   -7.689e-07  
  2.2800e-10    8.000e-01    1.498e-05  
  2.2900e-10    8.000e-01    3.074e-05  
  2.3000e-10    8.000e-01    4.649e-05  
  2.3100e-10    8.000e-01    6.225e-05  
  2.3200e-10    8.000e-01    7.800e-05  
  2.3300e-10    8.000e-01    9.375e-05  
  2.3400e-10    8.000e-01    1.095e-04  
  2.3500e-10    8.000e-01    1.253e-04  
  2.3600e-10    8.000e-01    1.410e-04  
  2.3700e-10    8.001e-01    1.568e-04  
  2.3800e-10    8.001e-01    1.725e-04  
  2.3900e-10    8.001e-01    1.883e-04  
  2.4000e-10    8.001e-01    2.040e-04  
  2.4100e-10    8.001e-01    2.198e-04  
  2.4200e-10    8.001e-01    2.355e-04  
  2.4300e-10    8.001e-01    2.513e-04  
  2.4400e-10    8.001e-01    2.670e-04  
  2.4500e-10    8.001e-01    2.828e-04  
  2.4600e-10    8.001e-01    2.985e-04  
  2.4700e-10    8.001e-01    3.143e-04  
  2.4800e-10    8.001e-01    3.301e-04  
  2.4900e-10    8.001e-01    3.458e-04  
  2.5000e-10    8.001e-01    3.616e-04  
  2.5100e-10    8.001e-01    3.773e-04  
  2.5200e-10    8.001e-01    3.931e-04  
  2.5300e-10    8.001e-01    4.043e-04  
  2.5400e-10    8.001e-01    3.907e-04  
  2.5500e-10    8.001e-01    3.771e-04  
  2.5600e-10    8.001e-01    3.634e-04  
  2.5700e-10    8.001e-01    3.498e-04  
  2.5800e-10    8.001e-01    3.362e-04  
  2.5900e-10    8.001e-01    3.225e-04  
  2.6000e-10    8.001e-01    3.089e-04  
  2.6100e-10    8.001e-01    2.953e-04  
  2.6200e-10    8.001e-01    2.816e-04  
  2.6300e-10    8.001e-01    2.680e-04  
  2.6400e-10    8.001e-01    2.544e-04  
  2.6500e-10    8.001e-01    2.407e-04  
  2.6600e-10    8.001e-01    2.271e-04  
  2.6700e-10    8.001e-01    2.135e-04  
  2.6800e-10    8.001e-01    1.998e-04  
  2.6900e-10    8.001e-01    1.862e-04  
  2.7000e-10    8.001e-01    1.726e-04  
  2.7100e-10    8.001e-01    1.589e-04  
  2.7200e-10    8.001e-01    1.453e-04  
  2.7300e-10    8.000e-01    1.317e-04  
  2.7400e-10    8.000e-01    1.180e-04  
  2.7500e-10    8.000e-01    1.044e-04  
  2.7600e-10    8.000e-01    9.076e-05  
  2.7700e-10    8.000e-01    7.713e-05  
  2.7800e-10    8.000e-01    6.350e-05  
  2.7900e-10    8.000e-01    4.986e-05  
  2.8000e-10    8.000e-01    3.623e-05  
  2.8100e-10    8.000e-01    2.260e-05  
  2.8200e-10    8.000e-01    8.964e-06  
  2.8300e-10    8.000e-01   -4.669e-06  
  2.8400e-10    8.000e-01   -1.830e-05  
  2.8500e-10    8.000e-01   -3.194e-05  
  2.8600e-10    8.000e-01   -4.557e-05  
  2.8700e-10    8.000e-01   -5.920e-05  
  2.8800e-10    8.000e-01   -7.283e-05  
  2.8900e-10    8.000e-01   -8.647e-05  
  2.9000e-10    8.000e-01   -1.001e-04  
  2.9100e-10    8.000e-01   -1.137e-04  
  2.9200e-10    8.000e-01   -1.274e-04  
  2.9300e-10    8.000e-01   -1.410e-04  
  2.9400e-10    7.999e-01   -1.546e-04  
  2.9500e-10    7.999e-01   -1.683e-04  
  2.9600e-10    7.999e-01   -1.819e-04  
  2.9700e-10    7.999e-01   -1.955e-04  
  2.9800e-10    7.999e-01   -2.092e-04  
  2.9900e-10    7.999e-01   -2.228e-04  
  3.0000e-10    7.999e-01   -2.364e-04  
  3.0100e-10    7.999e-01   -2.501e-04  
  3.0200e-10    7.999e-01   -2.637e-04  
  3.0300e-10    7.999e-01   -2.773e-04  
  3.0400e-10    7.999e-01   -2.910e-04  
  3.0500e-10    7.999e-01   -3.046e-04  
  3.0600e-10    7.999e-01   -3.182e-04  
  3.0700e-10    7.999e-01   -3.319e-04  
  3.0800e-10    7.999e-01   -3.455e-04  
  3.0900e-10    7.999e-01   -3.591e-04  
  3.1000e-10    7.999e-01   -3.728e-04  
  3.1100e-10    7.999e-01   -3.864e-04  
  3.1200e-10    7.999e-01   -4.000e-04  
  3.1300e-10    7.999e-01   -3.975e-04  
  3.1400e-10    7.999e-01   -3.854e-04  
  3.1500e-10    7.999e-01   -3.733e-04  
  3.1600e-10    7.999e-01   -3.613e-04  
  3.1700e-10    7.999e-01   -3.492e-04  
  3.1800e-10    7.999e-01   -3.371e-04  
  3.1900e-10    7.999e-01   -3.250e-04  
  3.2000e-10    7.999e-01   -3.130e-04  
  3.2100e-10    7.999e-01   -3.009e-04  
  3.2200e-10    7.999e-01   -2.888e-04  
  3.2300e-10    7.999e-01   -2.767e-04  
  3.2400e-10    7.999e-01   -2.646e-04  
  3.2500e-10    7.999e-01   -2.526e-04  
  3.2600e-10    7.999e-01   -2.405e-04  
  3.2700e-10    7.999e-01   -2.284e-04  
  3.2800e-10    7.999e-01   -2.163e-04  
  3.2900e-10    7.999e-01   -2.043e-04  
  3.3000e-10    7.999e-01   -1.922e-04  
  3.3100e-10    7.999e-01   -1.801e-04  
  3.3200e-10    7.999e-01   -1.680e-04  
  3.3300e-10    7.999e-01   -1.560e-04  
  3.3400e-10    7.999e-01   -1.439e-04  
  3.3500e-10    8.000e-01   -1.318e-04  
  3.3600e-10    8.000e-01   -1.197e-04  
  3.3700e-10    8.000e-01   -1.077e-04  
  3.3800e-10    8.000e-01   -9.557e-05  
  3.3900e-10    8.000e-01   -8.350e-05  
  3.4000e-10    8.000e-01   -7.142e-05  
  3.4100e-10    8.000e-01   -5.934e-05  
  3.4200e-10    8.000e-01   -4.727e-05  
  3.4300e-10    8.000e-01   -3.519e-05  
  3.4400e-10    8.000e-01   -2.311e-05  
  3.4500e-10    8.000e-01   -1.104e-05  
  3.4600e-10    8.000e-01    1.039e-06  
  3.4700e-10    8.000e-01    1.312e-05  
  3.4800e-10    8.000e-01    2.519e-05  
  3.4900e-10    8.000e-01    3.727e-05  
  3.5000e-10    8.000e-01    4.935e-05  
  3.5100e-10    8.000e-01    6.142e-05  
  3.5200e-10    8.000e-01    7.350e-05  
  3.5300e-10    8.000e-01    8.558e-05  
  3.5400e-10    8.000e-01    9.765e-05  
  3.5500e-10    8.000e-01    1.097e-04  
  3.5600e-10    8.000e-01    1.218e-04  
  3.5700e-10    8.000e-01    1.339e-04  
  3.5800e-10    8.001e-01    1.460e-04  
  3.5900e-10    8.001e-01    1.580e-04  
  3.6000e-10    8.001e-01    1.701e-04  
  3.6100e-10    8.001e-01    1.822e-04  
  3.6200e-10    8.001e-01    1.943e-04  
  3.6300e-10    8.001e-01    2.063e-04  
  3.6400e-10    8.001e-01    2.184e-04  
  3.6500e-10    8.001e-01    2.305e-04  
  3.6600e-10    8.001e-01    2.426e-04  
  3.6700e-10    8.001e-01    2.546e-04  
  3.6800e-10    8.001e-01    2.667e-04  
  3.6900e-10    8.001e-01    2.788e-04  
  3.7000e-10    8.001e-01    2.909e-04  
  3.7100e-10    8.001e-01    3.030e-04  
  3.7200e-10    8.001e-01    3.150e-04  
  3.7300e-10    8.001e-01    3.271e-04  
  3.7400e-10    8.001e-01    3.392e-04  
  3.7500e-10    8.001e-01    3.513e-04  
  3.7600e-10    8.001e-01    3.633e-04  
  3.7700e-10    8.001e-01    3.754e-04  
  3.7800e-10    8.001e-01    3.875e-04  
  3.7900e-10    8.001e-01    3.996e-04  
  3.8000e-10    8.001e-01    3.969e-04  
  3.8100e-10    8.001e-01    3.860e-04  
  3.8200e-10    8.001e-01    3.752e-04  
  3.8300e-10    8.001e-01    3.643e-04  
  3.8400e-10    8.001e-01    3.535e-04  
  3.8500e-10    8.001e-01    3.426e-04  
  3.8600e-10    8.001e-01    3.317e-04  
  3.8700e-10    8.001e-01    3.209e-04  
  3.8800e-10    8.001e-01    3.100e-04  
  3.8900e-10    8.001e-01    2.992e-04  
  3.9000e-10    8.001e-01    2.883e-04  
  3.9100e-10    8.001e-01    2.774e-04  
  3.9200e-10    8.001e-01    2.666e-04  
  3.9300e-10    8.001e-01    2.557e-04  
  3.9400e-10    8.001e-01    2.449e-04  
  3.9500e-10    8.001e-01    2.340e-04  
  3.9600e-10    8.001e-01    2.231e-04  
  3.9700e-10    8.001e-01    2.123e-04  
  3.9800e-10    8.001e-01    2.014e-04  
  3.9900e-10    8.001e-01    1.906e-04  
  4.0000e-10    8.001e-01    1.797e-04  
  4.0100e-10    8.001e-01    1.688e-04  
  4.0200e-10    8.001e-01    1.580e-04  
  4.0300e-10    8.001e-01    1.471e-04  
  4.0400e-10    8.000e-01    1.363e-04  
  4.0500e-10    8.000e-01    1.254e-04  
  4.0600e-10    8.000e-01    1.145e-04  
  4.0700e-10    8.000e-01    1.037e-04  
  4.0800e-10    8.000e-01    9.283e-05  
  4.0900e-10    8.000e-01    8.197e-05  
  4.1000e-10    8.000e-01    7.110e-05  
  4.1100e-10    8.000e-01    6.024e-05  
  4.1200e-10    8.000e-01    4.938e-05  
  4.1300e-10    8.000e-01    3.852e-05  
  4.1400e-10    8.000e-01    2.766e-05  
  4.1500e-10    8.000e-01    1.680e-05  
  4.1600e-10    8.000e-01    5.944e-06  
  4.1700e-10    8.000e-01   -4.916e-06  
  4.1800e-10    8.000e-01   -1.578e-05  
  4.1900e-10    8.000e-01   -2.664e-05  
  4.2000e-10    8.000e-01   -3.750e-05  
  4.2100e-10    8.000e-01   -4.836e-05  
  4.2200e-10    8.000e-01   -5.922e-05  
  4.2300e-10    8.000e-01   -7.008e-05  
  4.2400e-10    8.000e-01   -8.094e-05  
  4.2500e-10    8.000e-01   -9.180e-05  
  4.2600e-10    8.000e-01   -1.027e-04  
  4.2700e-10    8.000e-01   -1.135e-04  
  4.2800e-10    8.000e-01   -1.244e-04  
  4.2900e-10    8.000e-01   -1.352e-04  
  4.3000e-10    7.999e-01   -1.461e-04  
  4.3100e-10    7.999e-01   -1.570e-04  
  4.3200e-10    7.999e-01   -1.678e-04  
  4.3300e-10    7.999e-01   -1.787e-04  
  4.3400e-10    7.999e-01   -1.895e-04  
  4.3500e-10    7.999e-01   -2.004e-04  
  4.3600e-10    7.999e-01   -2.113e-04  
  4.3700e-10    7.999e-01   -2.221e-04  
  4.3800e-10    7.999e-01   -2.330e-04  
  4.3900e-10    7.999e-01   -2.438e-04  
  4.4000e-10    7.999e-01   -2.547e-04  
  4.4100e-10    7.999e-01   -2.656e-04  
  4.4200e-10    7.999e-01   -2.764e-04  
  4.4300e-10    7.999e-01   -2.873e-04  
  4.4400e-10    7.999e-01   -2.981e-04  
  4.4500e-10    7.999e-01   -3.090e-04  
  4.4600e-10    7.999e-01   -3.199e-04  
  4.4700e-10    7.999e-01   -3.307e-04  
  4.4800e-10    7.999e-01   -3.416e-04  
  4.4900e-10    7.999e-01   -3.524e-04  
  4.5000e-10    7.999e-01   -3.633e-04  
  4.5100e-10    7.999e-01   -3.742e-04  
  4.5200e-10    7.999e-01   -3.850e-04  
  4.5300e-10    7.999e-01   -3.959e-04  
  4.5400e-10    7.999e-01   -3.993e-04  
  4.5500e-10    7.999e-01   -3.895e-04  
  4.5600e-10    7.999e-01   -3.796e-04  
  4.5700e-10    7.999e-01   -3.698e-04  
  4.5800e-10    7.999e-01   -3.599e-04  
  4.5900e-10    7.999e-01   -3.501e-04  
  4.6000e-10    7.999e-01   -3.403e-04  
  4.6100e-10    7.999e-01   -3.304e-04  
  4.6200e-10    7.999e-01   -3.206e-04  
  4.6300e-10    7.999e-01   -3.107e-04  
  4.6400e-10    7.999e-01   -3.009e-04  
  4.6500e-10    7.999e-01   -2.911e-04  
  4.6600e-10    7.999e-01   -2.812e-04  
  4.6700e-10    7.999e-01   -2.714e-04  
  4.6800e-10    7.999e-01   -2.615e-04  
  4.6900e-10    7.999e-01   -2.517e-04  
[...]
  1.5610e-09    1.191e-04    8.002e-01  
  1.5620e-09    1.221e-04    8.003e-01  
  1.5630e-09    1.251e-04    8.003e-01  
  1.5640e-09    1.281e-04    8.003e-01  
  1.5650e-09    1.312e-04    8.003e-01  
  1.5660e-09    1.342e-04    8.003e-01  
  1.5670e-09    1.372e-04    8.003e-01  
  1.5680e-09    1.402e-04    8.003e-01  
  1.5690e-09    1.432e-04    8.003e-01  
  1.5700e-09    1.462e-04    8.003e-01  
  1.5710e-09    1.492e-04    8.003e-01  
  1.5720e-09    1.488e-04    8.003e-01  
  1.5730e-09    1.458e-04    8.003e-01  
  1.5740e-09    1.428e-04    8.003e-01  
  1.5750e-09    1.398e-04    8.003e-01  
  1.5760e-09    1.368e-04    8.003e-01  
  1.5770e-09    1.338e-04    8.003e-01  
  1.5780e-09    1.307e-04    8.003e-01  
  1.5790e-09    1.277e-04    8.003e-01  
  1.5800e-09    1.247e-04    8.003e-01  
  1.5810e-09    1.217e-04    8.003e-01  
  1.5820e-09    1.187e-04    8.002e-01  
  1.5830e-09    1.157e-04    8.002e-01  
  1.5840e-09    1.127e-04    8.002e-01  
  1.5850e-09    1.097e-04    8.002e-01  
  1.5860e-09    1.067e-04    8.002e-01  
  1.5870e-09    1.037e-04    8.002e-01  
  1.5880e-09    1.007e-04    8.002e-01  
  1.5890e-09    9.769e-05    8.002e-01  
  1.5900e-09    9.469e-05    8.002e-01  
  1.5910e-09    9.168e-05    8.002e-01  
  1.5920e-09    8.868e-05    8.002e-01  
  1.5930e-09    8.567e-05    8.002e-01  
  1.5940e-09    8.267e-05    8.002e-01  
  1.5950e-09    7.966e-05    8.002e-01  
  1.5960e-09    7.666e-05    8.002e-01  
  1.5970e-09    7.365e-05    8.002e-01  
  1.5980e-09    7.065e-05    8.001e-01  
  1.5990e-09    6.764e-05    8.001e-01  
  1.6000e-09    6.463e-05    8.001e-01  
  1.6010e-09    6.163e-05    8.001e-01  
  1.6020e-09    5.862e-05    8.001e-01  
  1.6030e-09    5.562e-05    8.001e-01  
  1.6040e-09    5.261e-05    8.001e-01  
  1.6050e-09    4.961e-05    8.001e-01  
  1.6060e-09    4.660e-05    8.001e-01  
  1.6070e-09    4.360e-05    8.001e-01  
  1.6080e-09    4.059e-05    8.001e-01  
  1.6090e-09    3.759e-05    8.001e-01  
  1.6100e-09    3.458e-05    8.001e-01  
  1.6110e-09    3.158e-05    8.001e-01  
  1.6120e-09    2.857e-05    8.001e-01  
  1.6130e-09    2.557e-05    8.001e-01  
  1.6140e-09    2.256e-05    8.000e-01  
  1.6150e-09    1.956e-05    8.000e-01  
  1.6160e-09    1.655e-05    8.000e-01  
  1.6170e-09    1.355e-05    8.000e-01  
  1.6180e-09    1.054e-05    8.000e-01  
  1.6190e-09    7.536e-06    8.000e-01  
  1.6200e-09    4.531e-06    8.000e-01  
  1.6210e-09    1.526e-06    8.000e-01  
  1.6220e-09   -1.480e-06    8.000e-01  
  1.6230e-09   -4.485e-06    8.000e-01  
  1.6240e-09   -7.490e-06    8.000e-01  
  1.6250e-09   -1.050e-05    8.000e-01  
  1.6260e-09   -1.350e-05    8.000e-01  
  1.6270e-09   -1.651e-05    8.000e-01  
  1.6280e-09   -1.951e-05    8.000e-01  
  1.6290e-09   -2.252e-05    8.000e-01  
  1.6300e-09   -2.552e-05    7.999e-01  
  1.6310e-09   -2.853e-05    7.999e-01  
  1.6320e-09   -3.153e-05    7.999e-01  
  1.6330e-09   -3.454e-05    7.999e-01  
  1.6340e-09   -3.754e-05    7.999e-01  
  1.6350e-09   -4.055e-05    7.999e-01  
  1.6360e-09   -4.355e-05    7.999e-01  
  1.6370e-09   -4.656e-05    7.999e-01  
  1.6380e-09   -4.956e-05    7.999e-01  
  1.6390e-09   -5.257e-05    7.999e-01  
  1.6400e-09   -5.557e-05    7.999e-01  
  1.6410e-09   -5.858e-05    7.999e-01  
  1.6420e-09   -6.158e-05    7.999e-01  
  1.6430e-09   -6.459e-05    7.999e-01  
  1.6440e-09   -6.759e-05    7.999e-01  
  1.6450e-09   -7.060e-05    7.999e-01  
  1.6460e-09   -7.360e-05    7.998e-01  
  1.6470e-09   -7.661e-05    7.998e-01  
  1.6480e-09   -7.961e-05    7.998e-01  
  1.6490e-09   -8.262e-05    7.998e-01  
  1.6500e-09   -8.563e-05    7.998e-01  
  1.6510e-09   -8.863e-05    7.998e-01  
  1.6520e-09   -9.164e-05    7.998e-01  
  1.6530e-09   -9.464e-05    7.998e-01  
  1.6540e-09   -9.765e-05    7.998e-01  
  1.6550e-09   -1.007e-04    7.998e-01  
  1.6560e-09   -1.037e-04    7.998e-01  
  1.6570e-09   -1.067e-04    7.998e-01  
  1.6580e-09   -1.097e-04    7.998e-01  
  1.6590e-09   -1.127e-04    7.998e-01  
  1.6600e-09   -1.157e-04    7.998e-01  
  1.6610e-09   -1.187e-04    7.998e-01  
  1.6620e-09   -1.217e-04    7.997e-01  
  1.6630e-09   -1.247e-04    7.997e-01  
  1.6640e-09   -1.277e-04    7.997e-01  
  1.6650e-09   -1.307e-04    7.997e-01  
  1.6660e-09   -1.337e-04    7.997e-01  
  1.6670e-09   -1.367e-04    7.997e-01  
  1.6680e-09   -1.397e-04    7.997e-01  
  1.6690e-09   -1.427e-04    7.997e-01  
  1.6700e-09   -1.457e-04    7.997e-01  
  1.6710e-09   -1.487e-04    7.997e-01  
  1.6720e-09   -1.483e-04    7.997e-01  
  1.6730e-09   -1.453e-04    7.997e-01  
  1.6740e-09   -1.423e-04    7.997e-01  
  1.6750e-09   -1.393e-04    7.997e-01  
  1.6760e-09   -1.363e-04    7.997e-01  
  1.6770e-09   -1.333e-04    7.997e-01  
  1.6780e-09   -1.303e-04    7.997e-01  
  1.6790e-09   -1.273e-04    7.997e-01  
  1.6800e-09   -1.243e-04    7.997e-01  
  1.6810e-09   -1.213e-04    7.997e-01  
  1.6820e-09   -1.183e-04    7.998e-01  
  1.6830e-09   -1.153e-04    7.998e-01  
  1.6840e-09   -1.123e-04    7.998e-01  
  1.6850e-09   -1.093e-04    7.998e-01  
  1.6860e-09   -1.063e-04    7.998e-01  
  1.6870e-09   -1.033e-04    7.998e-01  
  1.6880e-09   -1.003e-04    7.998e-01  
  1.6890e-09   -9.733e-05    7.998e-01  
  1.6900e-09   -9.434e-05    7.998e-01  
  1.6910e-09   -9.134e-05    7.998e-01  
  1.6920e-09   -8.834e-05    7.998e-01  
  1.6930e-09   -8.535e-05    7.998e-01  
  1.6940e-09   -8.235e-05    7.998e-01  
  1.6950e-09   -7.935e-05    7.998e-01  
  1.6960e-09   -7.635e-05    7.998e-01  
  1.6970e-09   -7.336e-05    7.998e-01  
  1.6980e-09   -7.036e-05    7.999e-01  
  1.6990e-09   -6.736e-05    7.999e-01  
  1.7000e-09   -6.437e-05    7.999e-01  
  1.7010e-09   -6.137e-05    7.999e-01  
  1.7020e-09   -5.837e-05    7.999e-01  
  1.7030e-09   -5.538e-05    7.999e-01  
  1.7040e-09   -5.238e-05    7.999e-01  
  1.7050e-09   -4.938e-05    7.999e-01  
  1.7060e-09   -4.639e-05    7.999e-01  
  1.7070e-09   -4.339e-05    7.999e-01  
  1.7080e-09   -4.039e-05    7.999e-01  
  1.7090e-09   -3.740e-05    7.999e-01  
  1.7100e-09   -3.440e-05    7.999e-01  
  1.7110e-09   -3.140e-05    7.999e-01  
  1.7120e-09   -2.841e-05    7.999e-01  
  1.7130e-09   -2.541e-05    7.999e-01  
  1.7140e-09   -2.241e-05    8.000e-01  
  1.7150e-09   -1.942e-05    8.000e-01  
  1.7160e-09   -1.642e-05    8.000e-01  
  1.7170e-09   -1.342e-05    8.000e-01  
  1.7180e-09   -1.043e-05    8.000e-01  
  1.7190e-09   -7.428e-06    8.000e-01  
  1.7200e-09   -4.432e-06    8.000e-01  
  1.7210e-09   -1.435e-06    8.000e-01  
  1.7220e-09    1.562e-06    8.000e-01  
  1.7230e-09    4.559e-06    8.000e-01  
  1.7240e-09    7.556e-06    8.000e-01  
  1.7250e-09    1.055e-05    8.000e-01  
  1.7260e-09    1.355e-05    8.000e-01  
  1.7270e-09    1.655e-05    8.000e-01  
  1.7280e-09    1.954e-05    8.000e-01  
  1.7290e-09    2.254e-05    8.000e-01  
  1.7300e-09    2.554e-05    8.001e-01  
  1.7310e-09    2.853e-05    8.001e-01  
  1.7320e-09    3.153e-05    8.001e-01  
  1.7330e-09    3.453e-05    8.001e-01  
  1.7340e-09    3.752e-05    8.001e-01  
  1.7350e-09    4.052e-05    8.001e-01  
  1.7360e-09    4.352e-05    8.001e-01  
  1.7370e-09    4.651e-05    8.001e-01  
  1.7380e-09    4.951e-05    8.001e-01  
  1.7390e-09    5.251e-05    8.001e-01  
  1.7400e-09    5.550e-05    8.001e-01  
  1.7410e-09    5.850e-05    8.001e-01  
  1.7420e-09    6.150e-05    8.001e-01  
  1.7430e-09    6.450e-05    8.001e-01  
  1.7440e-09    6.749e-05    8.001e-01  
  1.7450e-09    7.049e-05    8.001e-01  
  1.7460e-09    7.349e-05    8.002e-01  
  1.7470e-09    7.648e-05    8.002e-01  
  1.7480e-09    7.948e-05    8.002e-01  
  1.7490e-09    8.248e-05    8.002e-01  
  1.7500e-09    8.547e-05    8.002e-01  
  1.7510e-09    8.847e-05    8.002e-01  
  1.7520e-09    9.147e-05    8.002e-01  
  1.7530e-09    9.446e-05    8.002e-01  
  1.7540e-09    9.746e-05    8.002e-01  
  1.7550e-09    1.005e-04    8.002e-01  
  1.7560e-09    1.035e-04    8.002e-01  
  1.7570e-09    1.065e-04    8.002e-01  
  1.7580e-09    1.094e-04    8.002e-01  
  1.7590e-09    1.124e-04    8.002e-01  
  1.7600e-09    1.154e-04    8.002e-01  
  1.7610e-09    1.184e-04    8.002e-01  
  1.7620e-09    1.214e-04    8.003e-01  
  1.7630e-09    1.244e-04    8.003e-01  
  1.7640e-09    1.274e-04    8.003e-01  
  1.7650e-09    1.304e-04    8.003e-01  
  1.7660e-09    1.334e-04    8.003e-01  
  1.7670e-09    1.364e-04    8.003e-01  
  1.7680e-09    1.394e-04    8.003e-01  
  1.7690e-09    1.424e-04    8.003e-01  
  1.7700e-09    1.454e-04    8.003e-01  
  1.7710e-09    1.484e-04    8.003e-01  
  1.7720e-09    1.480e-04    8.003e-01  
  1.7730e-09    1.450e-04    8.003e-01  
  1.7740e-09    1.420e-04    8.003e-01  
  1.7750e-09    1.390e-04    8.003e-01  
  1.7760e-09    1.360e-04    8.003e-01  
  1.7770e-09    1.330e-04    8.003e-01  
  1.7780e-09    1.300e-04    8.003e-01  
  1.7790e-09    1.270e-04    8.003e-01  
  1.7800e-09    1.240e-04    8.003e-01  
  1.7810e-09    1.211e-04    8.003e-01  
  1.7820e-09    1.181e-04    8.002e-01  
  1.7830e-09    1.151e-04    8.002e-01  
  1.7840e-09    1.121e-04    8.002e-01  
  1.7850e-09    1.091e-04    8.002e-01  
  1.7860e-09    1.061e-04    8.002e-01  
  1.7870e-09    1.031e-04    8.002e-01  
  1.7880e-09    1.001e-04    8.002e-01  
  1.7890e-09    9.715e-05    8.002e-01  
  1.7900e-09    9.416e-05    8.002e-01  
  1.7910e-09    9.117e-05    8.002e-01  
  1.7920e-09    8.818e-05    8.002e-01  
  1.7930e-09    8.519e-05    8.002e-01  
  1.7940e-09    8.220e-05    8.002e-01  
  1.7950e-09    7.922e-05    8.002e-01  
  1.7960e-09    7.623e-05    8.002e-01  
  1.7970e-09    7.324e-05    8.002e-01  
  1.7980e-09    7.025e-05    8.001e-01  
  1.7990e-09    6.726e-05    8.001e-01  
  1.8000e-09    6.427e-05    8.001e-01  
  1.8010e-09    6.128e-05    8.001e-01  
  1.8020e-09    5.830e-05    8.001e-01  
  1.8030e-09    5.531e-05    8.001e-01  
  1.8040e-09    5.232e-05    8.001e-01  
  1.8050e-09    4.933e-05    8.001e-01  
  1.8060e-09    4.634e-05    8.001e-01  
  1.8070e-09    4.335e-05    8.001e-01  
  1.8080e-09    4.037e-05    8.001e-01  
  1.8090e-09    3.738e-05    8.001e-01  
  1.8100e-09    3.439e-05    8.001e-01  
  1.8110e-09    3.140e-05    8.001e-01  
  1.8120e-09    2.841e-05    8.001e-01  
  1.8130e-09    2.542e-05    8.001e-01  
  1.8140e-09    2.243e-05    8.000e-01  
  1.8150e-09    1.945e-05    8.000e-01  
  1.8160e-09    1.646e-05    8.000e-01  
  1.8170e-09    1.347e-05    8.000e-01  
  1.8180e-09    1.048e-05    8.000e-01  
  1.8190e-09    7.492e-06    8.000e-01  
  1.8200e-09    4.503e-06    8.000e-01  
  1.8210e-09    1.515e-06    8.000e-01  
  1.8220e-09   -1.474e-06    8.000e-01  
  1.8230e-09   -4.462e-06    8.000e-01  
  1.8240e-09   -7.451e-06    8.000e-01  
  1.8250e-09   -1.044e-05    8.000e-01  
  1.8260e-09   -1.343e-05    8.000e-01  
  1.8270e-09   -1.642e-05    8.000e-01  
  1.8280e-09   -1.940e-05    8.000e-01  
  1.8290e-09   -2.239e-05    8.000e-01  
  1.8300e-09   -2.538e-05    7.999e-01  
  1.8310e-09   -2.837e-05    7.999e-01  
  1.8320e-09   -3.136e-05    7.999e-01  
  1.8330e-09   -3.435e-05    7.999e-01  
  1.8340e-09   -3.734e-05    7.999e-01  
  1.8350e-09   -4.032e-05    7.999e-01  
  1.8360e-09   -4.331e-05    7.999e-01  
  1.8370e-09   -4.630e-05    7.999e-01  
  1.8380e-09   -4.929e-05    7.999e-01  
  1.8390e-09   -5.228e-05    7.999e-01  
  1.8400e-09   -5.527e-05    7.999e-01  
  1.8410e-09   -5.826e-05    7.999e-01  
  1.8420e-09   -6.124e-05    7.999e-01  
  1.8430e-09   -6.423e-05    7.999e-01  
  1.8440e-09   -6.722e-05    7.999e-01  
  1.8450e-09   -7.021e-05    7.999e-01  
  1.8460e-09   -7.320e-05    7.998e-01  
  1.8470e-09   -7.619e-05    7.998e-01  
  1.8480e-09   -7.917e-05    7.998e-01  
  1.8490e-09   -8.216e-05    7.998e-01  
  1.8500e-09   -8.515e-05    7.998e-01  
  1.8510e-09   -8.814e-05    7.998e-01  
  1.8520e-09   -9.113e-05    7.998e-01  
  1.8530e-09   -9.412e-05    7.998e-01  
  1.8540e-09   -9.711e-05    7.998e-01  
  1.8550e-09   -1.001e-04    7.998e-01  
  1.8560e-09   -1.031e-04    7.998e-01  
  1.8570e-09   -1.061e-04    7.998e-01  
  1.8580e-09   -1.091e-04    7.998e-01  
  1.8590e-09   -1.120e-04    7.998e-01  
  1.8600e-09   -1.150e-04    7.998e-01  
  1.8610e-09   -1.180e-04    7.998e-01  
  1.8620e-09   -1.210e-04    7.997e-01  
  1.8630e-09   -1.240e-04    7.997e-01  
  1.8640e-09   -1.270e-04    7.997e-01  
  1.8650e-09   -1.300e-04    7.997e-01  
  1.8660e-09   -1.330e-04    7.997e-01  
  1.8670e-09   -1.360e-04    7.997e-01  
  1.8680e-09   -1.389e-04    7.997e-01  
  1.8690e-09   -1.419e-04    7.997e-01  
  1.8700e-09   -1.449e-04    7.997e-01  
  1.8710e-09   -1.479e-04    7.997e-01  
  1.8720e-09   -1.475e-04    7.997e-01  
  1.8730e-09   -1.445e-04    7.997e-01  
  1.8740e-09   -1.415e-04    7.997e-01  
  1.8750e-09   -1.385e-04    7.997e-01  
  1.8760e-09   -1.355e-04    7.997e-01  
  1.8770e-09   -1.326e-04    7.997e-01  
  1.8780e-09   -1.296e-04    7.997e-01  
  1.8790e-09   -1.266e-04    7.997e-01  
  1.8800e-09   -1.236e-04    7.997e-01  
  1.8810e-09   -1.206e-04    7.997e-01  
  1.8820e-09   -1.177e-04    7.998e-01  
  1.8830e-09   -1.147e-04    7.998e-01  
  1.8840e-09   -1.117e-04    7.998e-01  
  1.8850e-09   -1.087e-04    7.998e-01  
  1.8860e-09   -1.057e-04    7.998e-01  
  1.8870e-09   -1.028e-04    7.998e-01  
  1.8880e-09   -9.977e-05    7.998e-01  
  1.8890e-09   -9.679e-05    7.998e-01  
  1.8900e-09   -9.381e-05    7.998e-01  
  1.8910e-09   -9.083e-05    7.998e-01  
  1.8920e-09   -8.785e-05    7.998e-01  
  1.8930e-09   -8.487e-05    7.998e-01  
  1.8940e-09   -8.189e-05    7.998e-01  
  1.8950e-09   -7.891e-05    7.998e-01  
  1.8960e-09   -7.593e-05    7.998e-01  
  1.8970e-09   -7.295e-05    7.998e-01  
  1.8980e-09   -6.997e-05    7.999e-01  
  1.8990e-09   -6.699e-05    7.999e-01  
  1.9000e-09   -6.401e-05    7.999e-01  
  1.9010e-09   -6.103e-05    7.999e-01  
  1.9020e-09   -5.805e-05    7.999e-01  
  1.9030e-09   -5.507e-05    7.999e-01  
  1.9040e-09   -5.209e-05    7.999e-01  
  1.9050e-09   -4.911e-05    7.999e-01  
  1.9060e-09   -4.613e-05    7.999e-01  
  1.9070e-09   -4.315e-05    7.999e-01  
  1.9080e-09   -4.017e-05    7.999e-01  
  1.9090e-09   -3.719e-05    7.999e-01  
  1.9100e-09   -3.421e-05    7.999e-01  
  1.9110e-09   -3.123e-05    7.999e-01  
  1.9120e-09   -2.825e-05    7.999e-01  
  1.9130e-09   -2.527e-05    7.999e-01  
  1.9140e-09   -2.229e-05    8.000e-01  
  1.9150e-09   -1.931e-05    8.000e-01  
  1.9160e-09   -1.633e-05    8.000e-01  
  1.9170e-09   -1.335e-05    8.000e-01  
  1.9180e-09   -1.037e-05    8.000e-01  
  1.9190e-09   -7.385e-06    8.000e-01  
  1.9200e-09   -4.405e-06    8.000e-01  
  1.9210e-09   -1.424e-06    8.000e-01  
  1.9220e-09    1.556e-06    8.000e-01  
  1.9230e-09    4.536e-06    8.000e-01  
  1.9240e-09    7.516e-06    8.000e-01  
  1.9250e-09    1.050e-05    8.000e-01  
  1.9260e-09    1.348e-05    8.000e-01  
  1.9270e-09    1.646e-05    8.000e-01  
  1.9280e-09    1.944e-05    8.000e-01  
  1.9290e-09    2.242e-05    8.000e-01  
  1.9300e-09    2.540e-05    8.001e-01  
  1.9310e-09    2.838e-05    8.001e-01  
  1.9320e-09    3.136e-05    8.001e-01  
  1.9330e-09    3.434e-05    8.001e-01  
  1.9340e-09    3.732e-05    8.001e-01  
  1.9350e-09    4.030e-05    8.001e-01  
  1.9360e-09    4.328e-05    8.001e-01  
  1.9370e-09    4.626e-05    8.001e-01  
  1.9380e-09    4.924e-05    8.001e-01  
  1.9390e-09    5.222e-05    8.001e-01  
  1.9400e-09    5.520e-05    8.001e-01  
  1.9410e-09    5.818e-05    8.001e-01  
  1.9420e-09    6.116e-05    8.001e-01  
  1.9430e-09    6.414e-05    8.001e-01  
  1.9440e-09    6.712e-05    8.001e-01  
  1.9450e-09    7.010e-05    8.001e-01  
  1.9460e-09    7.308e-05    8.002e-01  
  1.9470e-09    7.606e-05    8.002e-01  
  1.9480e-09    7.904e-05    8.002e-01  
  1.9490e-09    8.202e-05    8.002e-01  
  1.9500e-09    8.500e-05    8.002e-01  
  1.9510e-09    8.798e-05    8.002e-01  
  1.9520e-09    9.096e-05    8.002e-01  
  1.9530e-09    9.394e-05    8.002e-01  
  1.9540e-09    9.692e-05    8.002e-01  
  1.9550e-09    9.990e-05    8.002e-01  
  1.9560e-09    1.029e-04    8.002e-01  
  1.9570e-09    1.059e-04    8.002e-01  
  1.9580e-09    1.088e-04    8.002e-01  
  1.9590e-09    1.118e-04    8.002e-01  
  1.9600e-09    1.148e-04    8.002e-01  
  1.9610e-09    1.178e-04    8.002e-01  
  1.9620e-09    1.208e-04    8.003e-01  
  1.9630e-09    1.237e-04    8.003e-01  
  1.9640e-09    1.267e-04    8.003e-01  
  1.9650e-09    1.297e-04    8.003e-01  
  1.9660e-09    1.327e-04    8.003e-01  
  1.9670e-09    1.357e-04    8.003e-01  
  1.9680e-09    1.386e-04    8.003e-01  
  1.9690e-09    1.416e-04    8.003e-01  
  1.9700e-09    1.446e-04    8.003e-01  
  1.9710e-09    1.476e-04    8.003e-01  
  1.9720e-09    1.429e-04    8.003e-01  
  1.9730e-09    1.325e-04    8.003e-01  
  1.9740e-09    1.221e-04    8.003e-01  
  1.9750e-09    1.118e-04    8.002e-01  
  1.9760e-09    1.014e-04    8.002e-01  
  1.9770e-09    9.105e-05    8.002e-01  
  1.9780e-09    8.068e-05    8.002e-01  
  1.9790e-09    7.032e-05    8.001e-01  
  1.9800e-09    5.995e-05    8.001e-01  
  1.9810e-09    4.958e-05    8.001e-01  
  1.9820e-09    3.922e-05    8.001e-01  
  1.9830e-09    2.885e-05    8.001e-01  
  1.9840e-09    1.849e-05    8.000e-01  
  1.9850e-09    8.124e-06    8.000e-01  
  1.9860e-09   -2.241e-06    8.000e-01  
  1.9870e-09   -1.261e-05    8.000e-01  
  1.9880e-09   -2.297e-05    8.000e-01  
  1.9890e-09   -3.334e-05    7.999e-01  
  1.9900e-09   -4.370e-05    7.999e-01  
  1.9910e-09   -5.407e-05    7.999e-01  
  1.9920e-09   -6.443e-05    7.999e-01  
  1.9930e-09   -7.480e-05    7.998e-01  
  1.9940e-09   -8.516e-05    7.998e-01  
  1.9950e-09   -9.553e-05    7.998e-01  
  1.9960e-09   -1.059e-04    7.998e-01  
  1.9970e-09   -1.163e-04    7.998e-01  
  1.9980e-09   -1.266e-04    7.997e-01  
  1.9990e-09   -1.370e-04    7.997e-01  
  2.0000e-09   -1.474e-04    7.997e-01  
y

          ***** job concluded
1****** HSPICE -- F-2011.09-SP2 64-BIT (Feb 27 2012) linux ******               
 ******  
 $ netlist of inverter

  ******  job statistics summary tnom=  25.000 temp=  25.000 *****
  
  
 ******  Machine Information  ******
 CPU:
 model name	: Intel(R) Xeon(R) CPU E5-2650 v4 @ 2.20GHz
 cpu MHz	: 2724.734
  
 OS:
 Linux version 3.10.0-693.17.1.el7.x86_64 (mockbuild@x86-041.build.eng.bos.redha
 t.com) (gcc version 4.8.5 20150623 (Red Hat 4.8.5-16) (GCC) ) #1 SMP Sun Jan 14
  10:36:03 EST 2018


  ******  HSPICE Threads Information  ******

  Command Line Threads Count :     1
  Available CPU Count        :    24
  Actual Threads Count       :     1


  ******  Circuit Statistics  ******
  # nodes       =      33 # elements   =      14
  # resistors   =       0 # capacitors =       0 # inductors   =       0
  # mutual_inds =       0 # vccs       =       0 # vcvs        =       0
  # cccs        =       0 # ccvs       =       0 # volt_srcs   =       2
  # curr_srcs   =       0 # diodes     =       0 # bjts        =       0
  # jfets       =       0 # mosfets    =      12 # U elements  =       0
  # T elements  =       0 # W elements =       0 # B elements  =       0
  # S elements  =       0 # P elements =       0 # va device   =       0
  # vector_srcs =       0


  ******  Runtime Statistics (seconds)  ******

  analysis           time    # points   tot. iter  conv.iter
  op point           0.00           1           4
  transient          0.03        2001         313          83 rev=         3
  readin             0.00
  errchk             0.01
  setup              0.00
  output             0.01


           peak memory used        135.46 megabytes
           total cpu time            0.05 seconds
           total elapsed time        0.28 seconds
           job started at     17:09:08 09/24/2020
           job ended   at     17:09:08 09/24/2020


 lic: Release hspice token(s) 
