$DATA1 SOURCE='HSPICE' VERSION='F-2011.09-SP2 64-BIT'
.TITLE '$ netlist of inverter'
 model_uut_peak_power00 model_uut_avg_power012 uut_peak_power    
 uut_avg_power    source_peak_power source_avg_power trf_delay         
 tfr_delay        temper           alter#            
  1.670e-05        2.509e-07        2.741e-05        2.315e-07        
  4.965e-04        6.983e-06        7.185e-12        6.668e-12        
  2.500e+01       1                 
