$DATA1 SOURCE='HSPICE' VERSION='F-2011.09-SP2 64-BIT'
.TITLE '$ netlist of inverter'
 model_uut_peak_power00 model_uut_avg_power00 uut_peak_power    
 uut_avg_power    source_peak_power source_avg_power trf_delay_001     
 tfr_delay_001    temper           alter#            
  3.277e-05        1.768e-07        3.277e-05        1.768e-07        
  4.586e-05        3.167e-07        4.649e-12        4.931e-12        
  2.500e+01       1                 
