 ****** HSPICE -- F-2011.09-SP2 64-BIT (Feb 27 2012) linux ******               
  Copyright (C) 2011 Synopsys, Inc. All Rights Reserved.                        
  Unpublished-rights reserved under US copyright laws.
  This program is protected by law and is subject to the
  terms and conditions of the license agreement from Synopsys.
  Use of this program is your acceptance to be bound by the
  license agreement. HSPICE is the trademark of Synopsys, Inc.
  Input File: ptm10lstp.sp                                                      
  Command line options: ptm10lstp.sp
 lic:  
 lic: FLEXlm: v10.8 
 lic: USER:   iliabautista         HOSTNAME: itn3.rc.usf.edu 
 lic: HOSTID:                      PID:      89596 
 lic: Using FLEXlm license file: 
 lic: 27000@license0.rc.usf.edu 
 lic: Checkout 1 hspice 
 lic: License/Maintenance for hspice will expire on 18-jul-2021/2019.06 
 lic: 1(in_use)/50(total) FLOATING license(s) on SERVER license0.rc.usf.edu 
 lic:   
  **warning** (../modelfiles/lstp/10nfet.pm:4) Model nfet device geometries will not be checked against the limits set by lmin, lmax, nfinmin and nfinmax. To enable this check, add a period(.) to the model name(i.e. enable model selector).
1****** HSPICE -- F-2011.09-SP2 64-BIT (Feb 27 2012) linux ******               
 ******  
 $ netlist of inverter

  ******  circuit name directory
 circuit number to circuit name directory
   number circuitname                     definition         multiplier
        0 main circuit
        1 xinput_0.                       inverter           1.00 
        2 xinput_1.                       inverter           1.00 
        3 xmodel_uut_grid.                model_uut_grid     1.00 
        4 xoutput_00.                     inverter           1.00 
        5 xoutput_10.                     inverter           1.00 
        6 xinput_0.xpfet.                 pfet               1.00 
        7 xinput_0.xnfet.                 nfet               1.00 
        8 xinput_1.xpfet.                 pfet               1.00 
        9 xinput_1.xnfet.                 nfet               1.00 
       10 xmodel_uut_grid.xinverter00.    inverter           1.00 
       11 xmodel_uut_grid.xinverter10.    inverter           1.00 
       12 xmodel_uut_grid.xinverter01.    inverter           1.00 
       13 xmodel_uut_grid.xinverter11.    inverter           1.00 
       14 xoutput_00.xpfet.               pfet               1.00 
       15 xoutput_00.xnfet.               nfet               1.00 
       16 xoutput_10.xpfet.               pfet               1.00 
       17 xoutput_10.xnfet.               nfet               1.00 
       18 xmodel_uut_grid.xinverter00.xpfet.
                                            pfet               1.00 
       19 xmodel_uut_grid.xinverter00.xnfet.
                                            nfet               1.00 
       20 xmodel_uut_grid.xinverter10.xpfet.
                                            pfet               1.00 
       21 xmodel_uut_grid.xinverter10.xnfet.
                                            nfet               1.00 
       22 xmodel_uut_grid.xinverter01.xpfet.
                                            pfet               1.00 
       23 xmodel_uut_grid.xinverter01.xnfet.
                                            nfet               1.00 
       24 xmodel_uut_grid.xinverter11.xpfet.
                                            pfet               1.00 
       25 xmodel_uut_grid.xinverter11.xnfet.
                                            nfet               1.00 
1****** HSPICE -- F-2011.09-SP2 64-BIT (Feb 27 2012) linux ******               
 ******  
 $ netlist of inverter

  ******  mos   model parameters tnom=  25.000 temp=  25.000 *****
 Model Name: pfet 
 BSIM-MG BULK Model(Level72)
   VERSION = 105.03  
   DEVTYPE = -1 
   BULKMOD = 1  
   COREMOD = 0 
   GEOMOD = 1 
   RDSMOD = 1 
   IGCMOD = 1 
   IGBMOD = 1 
   GIDLMOD = 0 
   IIMOD = 0 
   NQSMOD = 0 
   SHMOD = 0 
   RGATEMOD = 0 
   RGEOMOD = 1 
   CGEOMOD = 2 
   CAPMOD = 0 
   LINT =      0 m
   LL =      0 m^(LLN+1)
   LLN =      1 
   DLC =      0 m
   DLBIN =      0 
   LLC =      0 m^(LLN+1)
   EOT = 8.8e-10 m
   TOXP = 1.2e-09 m
   EOTBOX = 1.4e-07 m
   HFIN = 2.1e-08 m
   FECH =      1 
   DELTAW =      0 m
   FECHCV =      1 
   DELTAWCV =      0 m
   NBODY = 2.5e+22 m^-3
   NSD =  3e+26 m^-3
   PHIG =  4.566 eV
   EPSROX =    3.9 
   EPSRSUB =   11.9 
   EASUB =   4.05 eV
   NI0SUB = 1.1e+16 m^-3
   BG0SUB =   1.12 eV
   NC0SUB = 2.86e+25 m^-3
   NGATE =      0 m^-3
   CIT = 1.3e-05 F/m^2
   CDSC =  0.024 F/m^2
   CDSCD =  0.007 F/m^2
   CDSCDR =  0.007 
   DVT0 =   0.01 
   DVT1 =   0.69 
   PHIN =   0.05 V
   ETA0 =   0.57 
   ETA0R =   0.57 
   DSUB =    0.9 
   K1RSCE =      0 V^1/2
   LPE0 =  5e-09 m
   DVTSHIFT =      0 
   QMFACTOR =      0 
   QMTCENIV =      0 
   QMTCENCV =      0 
   AQMTCEN =      0 
   BQMTCEN = 1.2e-08 
   ETAQM =   0.54 
   QM0 = 0.001143 
   PQM =   0.66 
   QM0ACC =  0.001 
   PQMACC =   0.66 
   VSAT = 1.29e+05 
   AVSAT =      0 
   BVSAT =  1e-07 
   VSAT1 = 1.29e+05 
   AVSAT1 =      0 
   BVSAT1 =  1e-07 
   DELTAVSAT =      1 
   KSATIV =    0.8 
   MEXP =      3 
   AMEXP =      0 
   BMEXP =      1 
   PTWG =      0 
   APTWG =      0 
   BPTWG =  1e-07 
   AT = -0.00156 
   TMEXP =      0 
   PTWGT =  0.004 
   U0 =  0.036 
   ETAMOB =      2 
   UP =      0 
   LPA =      1 
   UA =    0.3 
   AUA =      0 
   BUA =  1e-07 
   EU =    1.8 
   AEU =      0 
   BEU =  1e-07 
   UD =      0 
   AUD =      0 
   BUD =  5e-08 
   UCS =      0 
   UTE =      0 
   UTL = -0.0015 
   UA1 = 0.001032 
   UD1 =      0 
   UCSTE = -0.00478 
   RDSWMIN =      0 
   RDSW =    100 
   ARDSW =      0 
   BRDSW =  1e-07 
   RSWMIN =      0 
   RSW =      0 
   ARSW =      0 
   BRSW =  1e-07 
   RDWMIN =      0 
   RDW =      0 
   ARDW =      0 
   BRDW =  1e-07 
   PRWG =      0 
   WR =      1 
   PRT =  0.001 
   PDIBL1 =    1.3 
   PDIBL2 = 0.0002 
   DROUT =   1.06 
   PVAG =      1 
   PCLM =    0.2 
   APCLM =      0 
   BPCLM =  1e-07 
   PCLMG =      0 
   VASAT =    0.6 
   PCLMCV =  0.013 
   PCLMGCV =      0 
   VASATCV =    0.2 
   RGEXT =      0 ohm
   RGFIN =  0.001 ohm
   RSHS =      0 ohm
   RSHD =      0 ohm
   HEPI = 8.5e-09 m
   TSILI =  7e-09 m
   RHOC =  7e-13 ohm/m^2
   RHORSD =      1 ohm/m
   RHOEXT =      1 ohm/m
   CRATIO =    0.5 
   DELTAPRSD =      0 m
   SDTERM = 0 
   LSP = 2.8e-09 m
   LDG =  2e-09 m
   EPSRSP =    3.9 
   TGATE =  8e-09 m
   TMASK =      0 m
   ASILIEND =      0 m^2
   ARSDEND =      0 m^2
   PRSDEND =      0 m
   NSDE =  6e+25 m^-3
   RGEOA =      1 
   RGEOB =      0 m^-1
   RGEOC =      0 m^-1
   RGEOD =      0 m^-1
   RGEOE =      0 m^-1
   CGEOA =      1 
   CGEOB =      0 m^-1
   CGEOC =      0 m^-1
   CGEOD =      0 m^-1
   CGEOE =      1 
   AIGBINV = 0.0111 (Fs^2/g)^0.5m^-1
   BIGBINV =   0.03 (Fs^2/g)^0.5m^-1
   CIGBINV =  0.006 V^-1
   EIGBINV =    1.1 V
   NIGBINV =    1.2 
   AIGBACC = 0.0149 
   BIGBACC = 0.000949 
   CIGBACC =  0.075 
   NIGBACC =      3 
   AIGC = 0.0136 (Fs^2/g)^0.5m^-1
   BIGC = 0.00171 (Fs^2/g)^0.5m^-1V^-1
   CIGC =  0.075 V^-1
   NIGC =      1 
   DLCIGS =      0 m
   AIGS = 0.0136 (Fs^2/g)^0.5m^-1
   BIGS = 0.00171 (Fs^2/g)^0.5m^-1V^-1
   CIGS =  0.075 V^-1
   DLCIGD =      0 m
   AIGD = 0.0136 (Fs^2/g)^0.5m^-1
   BIGD = 0.00171 (Fs^2/g)^0.5m^-1V^-1
   CIGD =  0.075 V^-1
   POXEDGE =      1 
   AGIDL = 5.729e-12 ohm^-1
   BGIDL =  3e+08 V/m
   EGIDL =    0.1 V
   AGISL = 5.729e-12 ohm^-1
   BGISL =  3e+08 V/m
   EGISL =    0.1 V
   ALPHA0 =      0 mV^-1
   ALPHA1 =      0 V^-1
   BETA0 =     30 V^-1
   ALPHAII =      0 
   BETAII0 =      0 V^-1
   BETAII1 =      0 
   BETAII2 =    0.1 V
   ESATII =  1e+07 V/m
   LII =  5e-10 V/m
   SII0 =    0.5 V^-1
   SII1 =    0.1 
   SII2 =      0 V
   SIID =      0 V
   EOTACC = 8.8e-10 m
   DELVFBACC =      0 V
   CFS = 2.56e-11 F/m
   CFD = 2.65e-11 F/m
   COVS = 2.5e-11 F/m
   COVD = 2.5e-11 F/m
   CGSO =      0 F/m
   CGDO =      0 F/m
   CGSL =      0 F/m
   CGDL =      0 F/m
   CKAPPAS =    0.6 V
   CKAPPAD =    0.6 V
   CGBO =      0 F/m
   CGBL =      0 F/m
   CKAPPAB =    0.6 V
   CSDESW =      0 F/m
   CJS = 0.0005 F/m^2
   CJD = 0.0005 F/m^2
   CJSWS =  5e-10 F/m
   CJSWD =  5e-10 F/m
   CJSWGS =      0 F/m
   CJSWGD =      0 F/m
   PBS =      1 V
   PBD =      1 V
   PBSWS =      1 V
   PBSWD =      1 V
   PBSWGS =      1 V
   PBSWGD =      1 V
   MJS, =    0.5 
   MJD =    0.5 
   MJSWS =   0.33 
   MJSWD =   0.33 
   MJSWGS =   0.33 
   MJSWGD =   0.33 
   SJS =      0 
   SJD =      0 
   SJSWS =      0 
   SJSWD =      0 
   SJSWGS =      0 
   SJSWGD =      0 
   MJS2 =  0.125 
   MJD2 =  0.125 
   MJSWS2 =   0.33 
   MJSWD2 =   0.33 
   MJSWGS2 =   0.33 
   MJSWGD2 =   0.33 
   JSS = 0.0001 A/m^2
   JSD = 0.0001 A/m^2
   JSWS =      0 A/m
   JSWD =      0 A/m
   JSWGS =      0 A/m
   JSWGD =      0 A/m
   NJS =      1 
   NJD =      1 
   IJTHSFWD =    0.1 A
   IJTHDFWD =    0.1 A
   IJTHSREV =    0.1 A
   IJTHDREV =    0.1 A
   BVS =     10 V
   BVD =     10 V
   XJBVS =      1 
   XJBVD =      1 
   JTSS =      0 A/m^2
   JTSD =      0 A/m^2
   JTSSWS =      0 A/m
   JTSSWD =      0 A/m
   JTSSWGS =      0 A/m
   JTSSWGD =      0 A/m
   JTWEFF =      0 m
   NJTS =     20 
   NJTSD =     20 
   NJTSSW =     20 
   NJTSSWD =     20 
   NJTSSWG =     20 
   NJTSSWGD =     20 
   VTSS =     10 V
   VTSD =     10 V
   VTSSWS =     10 V
   VTSSWD =     10 V
   VTSSWGS =     10 V
   VTSSWGD =     10 V
   LINTIGEN =      0 m
   NTGEN =      1 
   AIGEN =      0 m^-3V^-1
   BIGEN =      0 m^-3V^-3
   XRCRG1 =     12 
   XRCRG2 =      1 
   NSEG = 5 
   EF =      1 
   EM = 4.1e+07 V/m
   NOIA = 6.25e+39 eV^-1s^1-EFm^-3
   NOIB = 3.125e+24 eV^-1s^1-EFm^-1
   NOIC = 8.75e+07 eV^-1s^1-EFm
   NTNOI =      1 
   TNOM =  300.1 K
   TBGASUB = 0.000702 eV/K
   TBGBSUB =   1108 K
   KT1 =      0 V
   KT1L =      0 Vm
   IIT =   -0.5 
   TII =      0 
   TGIDL = -0.0003 K^-1
   IGT =    2.5 
   TCJ =      0 K^-1
   TCJSW =      0 K^-1
   TCJSWG =      0 K^-1
   TPB =      0 K^-1
   TPBSW =      0 K^-1
   TPBSWG =      0 K^-1
   XTIS =      3 
   XTID =      3 
   XTSS =   0.02 
   XTSD =   0.02 
   XTSSWS =   0.02 
   XTSSWD =   0.02 
   XTSSWGS =   0.02 
   XTSSWGD =   0.02 
   TNJTS =      0 
   TNJTSD =      0 
   TNJTSSW =      0 
   TNJTSSWD =      0 
   TNJTSSWG =      0 
   TNJTSSWGD =      0 
   RTH0 =   0.01 ohm
   CTH0 =  1e-05 F
   WTH0 =      0 m
   LNBODY =      0 
   NNBODY =      0 
   PNBODY =      0 
   LPHIG =      0 
   NPHIG =      0 
   PPHIG =      0 
   LNGATE =      0 
   NNGATE =      0 
   PNGATE =      0 
   LCIT =      0 
   NCIT =      0 
   PCIT =      0 
   LCDSC =      0 
   NCDSC =      0 
   PCDSC =      0 
   LCDSCD =      0 
   NCDSCD =      0 
   PCDSCD =      0 
   LCDSCDR =      0 
   NCDSCDR =      0 
   PCDSCDR =      0 
   LDVT0 =      0 
   NDVT0 =      0 
   PDVT0 =      0 
   LDVT1 =      0 
   NDVT1 =      0 
   PDVT1 =      0 
   LPHIN =      0 
   NPHIN =      0 
   PPHIN =      0 
   LETA0 =      0 
   NETA0 =      0 
   PETA0 =      0 
   LETA0R =      0 
   NETA0R =      0 
   PETA0R =      0 
   LDSUB =      0 
   NDSUB =      0 
   PDSUB =      0 
   LK1RSCE =      0 
   NK1RSCE =      0 
   PK1RSCE =      0 
   LLPE0 =      0 
   NLPE0 =      0 
   PLPE0 =      0 
   LQMFACTOR =      0 
   NQMFACTOR =      0 
   PQMFACTOR =      0 
   LQMTCENIV =      0 
   NQMTCENIV =      0 
   PQMTCENIV =      0 
   LQMTCENCV =      0 
   NQMTCENCV =      0 
   PQMTCENCV =      0 
   LVSAT =      0 
   NVSAT =      0 
   PVSAT =      0 
   LKSATIV =      0 
   NKSATIV =      0 
   PKSATIV =      0 
   LMEXP =      0 
   NMEXP =      0 
   PMEXP =      0 
   LPTWG =      0 
   NPTWG =      0 
   PPTWG =      0 
   LTHETASAT =      0 
   NTHETASAT =      0 
   PTHETASAT =      0 
   LU0 =      0 
   NU0 =      0 
   PU0 =      0 
   LUP =      0 
   NUP =      0 
   PUP =      0 
   LUA =      0 
   NUA =      0 
   PUA =      0 
   LEU =      0 
   NEU =      0 
   PEU =      0 
   LUD =      0 
   NUD =      0 
   PUD =      0 
   LUCS =      0 
   NUCS =      0 
   PUCS =      0 
   LPCLM =      0 
   NPCLM =      0 
   PPCLM =      0 
   LPCLMCV =      0 
   NPCLMCV =      0 
   PPCLMCV =      0 
   LRDSW =      0 
   NRDSW =      0 
   PRDSW =      0 
   LRSW =      0 
   NRSW =      0 
   PRSW =      0 
   LRDW =      0 
   NRDW =      0 
   PRDW =      0 
   LPRWG =      0 
   NPRWG =      0 
   PPRWG =      0 
   LWR =      0 
   NWR =      0 
   PWR =      0 
   LPDIBL1 =      0 
   NPDIBL1 =      0 
   PPDIBL1 =      0 
   LPDIBL2 =      0 
   NPDIBL2 =      0 
   PPDIBL2 =      0 
   LDROUT =      0 
   NDROUT =      0 
   PDROUT =      0 
   LPVAG =      0 
   NPVAG =      0 
   PPVAG =      0 
   LAIGBINV =      0 
   NAIGBINV =      0 
   PAIGBINV =      0 
   LBIGBINV =      0 
   NBIGBINV =      0 
   PBIGBINV =      0 
   LCIGBINV =      0 
   NCIGBINV =      0 
   PCIGBINV =      0 
   LEIGBINV =      0 
   NEIGBINV =      0 
   PEIGBINV =      0 
   LNIGBINV =      0 
   NNIGBINV =      0 
   PNIGBINV =      0 
   LAIGC =      0 
   NAIGC =      0 
   PAIGC =      0 
   LBIGC =      0 
   NBIGC =      0 
   PBIGC =      0 
   LCIGC =      0 
   NCIGC =      0 
   PCIGC =      0 
   LNIGC =      0 
   NNIGC =      0 
   PNIGC =      0 
   LAIGS =      0 
   NAIGS =      0 
   PAIGS =      0 
   LBIGS =      0 
   NBIGS =      0 
   PBIGS =      0 
   LCIGS =      0 
   NCIGS =      0 
   PCIGS =      0 
   LAIGD =      0 
   NAIGD =      0 
   PAIGD =      0 
   LBIGD =      0 
   NBIGD =      0 
   PBIGD =      0 
   LCIGD =      0 
   NCIGD =      0 
   PCIGD =      0 
   LPOXEDGE =      0 
   NPOXEDGE =      0 
   PPOXEDGE =      0 
   LAGIDL =      0 
   NAGIDL =      0 
   PAGIDL =      0 
   LBGIDL =      0 
   NBGIDL =      0 
   PBGIDL =      0 
   LEGIDL =      0 
   NEGIDL =      0 
   PEGIDL =      0 
   LAGISL =      0 
   NAGISL =      0 
   PAGISL =      0 
   LBGISL =      0 
   NBGISL =      0 
   PBGISL =      0 
   LEGISL =      0 
   NEGISL =      0 
   PEGISL =      0 
   LALPHA0 =      0 
   NALPHA0 =      0 
   PALPHA0 =      0 
   LALPHA1 =      0 
   NALPHA1 =      0 
   PALPHA1 =      0 
   LBETA0 =      0 
   NBETA0 =      0 
   PBETA0 =      0 
   LALPHAII =      0 
   NALPHAII =      0 
   PALPHAII =      0 
   LBETAII0 =      0 
   NBETAII0 =      0 
   PBETAII0 =      0 
   LBETAII1 =      0 
   NBETAII1 =      0 
   PBETAII1 =      0 
   LBETAII2 =      0 
   NBETAII2 =      0 
   PBETAII2 =      0 
   LESATII =      0 
   NESATII =      0 
   PESATII =      0 
   LLII =      0 
   NLII =      0 
   PLII =      0 
   LSII0 =      0 
   NSII0 =      0 
   PSII0 =      0 
   LSII1 =      0 
   NSII1 =      0 
   PSII1 =      0 
   LSII2 =      0 
   NSII2 =      0 
   PSII2 =      0 
   LSIID =      0 
   NSIID =      0 
   PSIID =      0 
   LCFS =      0 
   NCFS =      0 
   PCFS =      0 
   LCFD =      0 
   NCFD =      0 
   PCFD =      0 
   LCOVS =      0 
   NCOVS =      0 
   PCOVS =      0 
   LCOVD =      0 
   NCOVD =      0 
   PCOVD =      0 
   LCGSL =      0 
   NCGSL =      0 
   PCGSL =      0 
   LCGDL =      0 
   NCGDL =      0 
   PCGDL =      0 
   LCKAPPAS =      0 
   NCKAPPAS =      0 
   PCKAPPAS =      0 
   LCKAPPAD =      0 
   NCKAPPAD =      0 
   PCKAPPAD =      0 
   LCGBL =      0 
   NCGBL =      0 
   PCGBL =      0 
   LCKAPPAB =      0 
   NCKAPPAB =      0 
   PCKAPPAB =      0 
   LNTGEN =      0 
   NNTGEN =      0 
   PNTGEN =      0 
   LAIGEN =      0 
   NAIGEN =      0 
   PAIGEN =      0 
   LBIGEN =      0 
   NBIGEN =      0 
   PBIGEN =      0 
   LXRCRG1 =      0 
   NXRCRG1 =      0 
   PXRCRG1 =      0 
   LXRCRG2 =      0 
   NXRCRG2 =      0 
   PXRCRG2 =      0 
   LINTNOI =      0 
   NINTNOI =      0 
   PINTNOI =      0 
   LUTE =      0 
   NUTE =      0 
   PUTE =      0 
   LUTL =      0 
   NUTL =      0 
   PUTL =      0 
   LUA1 =      0 
   NUA1 =      0 
   PUA1 =      0 
   LUD1 =      0 
   NUD1 =      0 
   PUD1 =      0 
   LUCSTE =      0 
   NUCSTE =      0 
   PUCSTE =      0 
   LPTWGT =      0 
   NPTWGT =      0 
   PPTWGT =      0 
   LAT =      0 
   NAT =      0 
   PAT =      0 
   LSTTHETASAT =      0 
   NSTTHETASAT =      0 
   PSTTHETASAT =      0 
   LPRT =      0 
   NPRT =      0 
   PPRT =      0 
   LIIT =      0 
   NIIT =      0 
   PIIT =      0 
   LTII =      0 
   NTII =      0 
   PTII =      0 
   LTGIDL =      0 
   NTGIDL =      0 
   PTGIDL =      0 
   LIGT =      0 
   NIGT =      0 
   PIGT =      0 
   L = 1.4e-08 m
   D =  4e-08 m
   TFIN =  8e-09 m
   FPITCH = 2.8e-08 m
   NF = 1 
   NFIN = 1 
   NGCON = 1 
   ASEO =      0 m^2
   ADEO =      0 m^2
   PSEO =      0 m
   PDEO =      0 m
   ASEJ =      0 m^2
   ADEJ =      0 m^2
   PSEJ =      0 m
   PDEJ =      0 m
   CGSP =      0 F
   CGDP =      0 F
   CDSP =      0 F
   NRS =      0 
   NRD =      0 
   LRSD = 1.4e-08 m
   XL =      0 m
   DELVTRAND =      0 
   U0MULT =      1 
   IDS0MULT =      1 
   Lmin =  1e-08 m
   Lmax =  3e-08 m
   NFINmin = 0 
   NFINmax = 1 
   LVSAT1 =      0 
   NVSAT1 =      0 
   PVSAT1 =      0 
   LETAMOB =      0 
   NETAMOB =      0 
   PETAMOB =      0 
   LPCLMG =      0 
   NPCLMG =      0 
   PPCLMG =      0 
   LVASAT =      0 
   NVASAT =      0 
   PVASAT =      0 
   LAIGBACC =      0 
   NAIGBACC =      0 
   PAIGBACC =      0 
   LBIGBACC =      0 
   NBIGBACC =      0 
   PBIGBACC =      0 
   LCIGBACC =      0 
   NCIGBACC =      0 
   PCIGBACC =      0 
   LNIGBACC =      0 
   NNIGBACC =      0 
   PNIGBACC =      0 
 Model Name: nfet 
 BSIM-MG BULK Model(Level72)
   VERSION = 105.03  
   DEVTYPE = 1 
   BULKMOD = 1  
   COREMOD = 0 
   GEOMOD = 1 
   RDSMOD = 1 
   IGCMOD = 1 
   IGBMOD = 1 
   GIDLMOD = 0 
   IIMOD = 0 
   NQSMOD = 0 
   SHMOD = 0 
   RGATEMOD = 0 
   RGEOMOD = 1 
   CGEOMOD = 2 
   CAPMOD = 0 
   LINT =      0 m
   LL =      0 m^(LLN+1)
   LLN =      1 
   DLC =      0 m
   DLBIN =      0 
   LLC =      0 m^(LLN+1)
   EOT = 8.8e-10 m
   TOXP = 1.2e-09 m
   EOTBOX = 1.4e-07 m
   HFIN = 2.1e-08 m
   FECH =      1 
   DELTAW =      0 m
   FECHCV =      1 
   DELTAWCV =      0 m
   NBODY = 2.5e+22 m^-3
   NSD =  3e+26 m^-3
   PHIG =  4.604 eV
   EPSROX =    3.9 
   EPSRSUB =   11.9 
   EASUB =   4.05 eV
   NI0SUB = 1.1e+16 m^-3
   BG0SUB =   1.12 eV
   NC0SUB = 2.86e+25 m^-3
   NGATE =      0 m^-3
   CIT = 1.3e-05 F/m^2
   CDSC =  0.022 F/m^2
   CDSCD =  0.007 F/m^2
   CDSCDR =  0.007 
   DVT0 =   0.01 
   DVT1 =   0.69 
   PHIN =   0.05 V
   ETA0 = 0.4079 
   ETA0R = 0.4079 
   DSUB =    0.9 
   K1RSCE =      0 V^1/2
   LPE0 =  5e-09 m
   DVTSHIFT =      0 
   QMFACTOR =      0 
   QMTCENIV =      0 
   QMTCENCV =      0 
   AQMTCEN =      0 
   BQMTCEN = 1.2e-08 
   ETAQM =   0.54 
   QM0 = 0.001143 
   PQM =   0.66 
   QM0ACC =  0.001 
   PQMACC =   0.66 
   VSAT = 1.32e+05 
   AVSAT =      0 
   BVSAT =  1e-07 
   VSAT1 = 1.32e+05 
   AVSAT1 =      0 
   BVSAT1 =  1e-07 
   DELTAVSAT =      1 
   KSATIV =    0.8 
   MEXP =      3 
   AMEXP =      0 
   BMEXP =      1 
   PTWG =      0 
   APTWG =      0 
   BPTWG =  1e-07 
   AT = -0.00156 
   TMEXP =      0 
   PTWGT =  0.004 
   U0 = 0.0568 
   ETAMOB =      2 
   UP =      0 
   LPA =      1 
   UA =    0.3 
   AUA =      0 
   BUA =  1e-07 
   EU =    1.8 
   AEU =      0 
   BEU =  1e-07 
   UD =      0 
   AUD =      0 
   BUD =  5e-08 
   UCS =      0 
   UTE =      0 
   UTL = -0.0015 
   UA1 = 0.001032 
   UD1 =      0 
   UCSTE = -0.00478 
   RDSWMIN =      0 
   RDSW =    100 
   ARDSW =      0 
   BRDSW =  1e-07 
   RSWMIN =      0 
   RSW =      0 
   ARSW =      0 
   BRSW =  1e-07 
   RDWMIN =      0 
   RDW =      0 
   ARDW =      0 
   BRDW =  1e-07 
   PRWG =      0 
   WR =      1 
   PRT =  0.001 
   PDIBL1 =    1.3 
   PDIBL2 = 0.0002 
   DROUT =   1.06 
   PVAG =      1 
   PCLM =    0.2 
   APCLM =      0 
   BPCLM =  1e-07 
   PCLMG =      0 
   VASAT =    0.6 
   PCLMCV =  0.013 
   PCLMGCV =      0 
   VASATCV =    0.2 
   RGEXT =      0 ohm
   RGFIN =  0.001 ohm
   RSHS =      0 ohm
   RSHD =      0 ohm
   HEPI = 8.5e-09 m
   TSILI =  7e-09 m
   RHOC =  6e-13 ohm/m^2
   RHORSD =      1 ohm/m
   RHOEXT =      1 ohm/m
   CRATIO =    0.5 
   DELTAPRSD =      0 m
   SDTERM = 0 
   LSP = 2.8e-09 m
   LDG =  2e-09 m
   EPSRSP =    3.9 
   TGATE =  8e-09 m
   TMASK =      0 m
   ASILIEND =      0 m^2
   ARSDEND =      0 m^2
   PRSDEND =      0 m
   NSDE =  6e+25 m^-3
   RGEOA =      1 
   RGEOB =      0 m^-1
   RGEOC =      0 m^-1
   RGEOD =      0 m^-1
   RGEOE =      0 m^-1
   CGEOA =      1 
   CGEOB =      0 m^-1
   CGEOC =      0 m^-1
   CGEOD =      0 m^-1
   CGEOE =      1 
   AIGBINV = 0.0111 (Fs^2/g)^0.5m^-1
   BIGBINV =   0.03 (Fs^2/g)^0.5m^-1
   CIGBINV =  0.006 V^-1
   EIGBINV =    1.1 V
   NIGBINV =    1.2 
   AIGBACC = 0.0149 
   BIGBACC = 0.000949 
   CIGBACC =  0.075 
   NIGBACC =      3 
   AIGC = 0.0136 (Fs^2/g)^0.5m^-1
   BIGC = 0.00171 (Fs^2/g)^0.5m^-1V^-1
   CIGC =  0.075 V^-1
   NIGC =      1 
   DLCIGS =      0 m
   AIGS = 0.0136 (Fs^2/g)^0.5m^-1
   BIGS = 0.00171 (Fs^2/g)^0.5m^-1V^-1
   CIGS =  0.075 V^-1
   DLCIGD =      0 m
   AIGD = 0.0136 (Fs^2/g)^0.5m^-1
   BIGD = 0.00171 (Fs^2/g)^0.5m^-1V^-1
   CIGD =  0.075 V^-1
   POXEDGE =      1 
   AGIDL = 5.729e-12 ohm^-1
   BGIDL =  3e+08 V/m
   EGIDL =    0.1 V
   AGISL = 5.729e-12 ohm^-1
   BGISL =  3e+08 V/m
   EGISL =    0.1 V
   ALPHA0 =      0 mV^-1
   ALPHA1 =      0 V^-1
   BETA0 =     30 V^-1
   ALPHAII =      0 
   BETAII0 =      0 V^-1
   BETAII1 =      0 
   BETAII2 =    0.1 V
   ESATII =  1e+07 V/m
   LII =  5e-10 V/m
   SII0 =    0.5 V^-1
   SII1 =    0.1 
   SII2 =      0 V
   SIID =      0 V
   EOTACC = 8.8e-10 m
   DELVFBACC =      0 V
   CFS = 2.56e-11 F/m
   CFD = 2.65e-11 F/m
   COVS = 2.5e-11 F/m
   COVD = 2.5e-11 F/m
   CGSO =      0 F/m
   CGDO =      0 F/m
   CGSL =      0 F/m
   CGDL =      0 F/m
   CKAPPAS =    0.6 V
   CKAPPAD =    0.6 V
   CGBO =      0 F/m
   CGBL =      0 F/m
   CKAPPAB =    0.6 V
   CSDESW =      0 F/m
   CJS = 0.0005 F/m^2
   CJD = 0.0005 F/m^2
   CJSWS =  5e-10 F/m
   CJSWD =  5e-10 F/m
   CJSWGS =      0 F/m
   CJSWGD =      0 F/m
   PBS =      1 V
   PBD =      1 V
   PBSWS =      1 V
   PBSWD =      1 V
   PBSWGS =      1 V
   PBSWGD =      1 V
   MJS, =    0.5 
   MJD =    0.5 
   MJSWS =   0.33 
   MJSWD =   0.33 
   MJSWGS =   0.33 
   MJSWGD =   0.33 
   SJS =      0 
   SJD =      0 
   SJSWS =      0 
   SJSWD =      0 
   SJSWGS =      0 
   SJSWGD =      0 
   MJS2 =  0.125 
   MJD2 =  0.125 
   MJSWS2 =   0.33 
   MJSWD2 =   0.33 
   MJSWGS2 =   0.33 
   MJSWGD2 =   0.33 
   JSS = 0.0001 A/m^2
   JSD = 0.0001 A/m^2
   JSWS =      0 A/m
   JSWD =      0 A/m
   JSWGS =      0 A/m
   JSWGD =      0 A/m
   NJS =      1 
   NJD =      1 
   IJTHSFWD =    0.1 A
   IJTHDFWD =    0.1 A
   IJTHSREV =    0.1 A
   IJTHDREV =    0.1 A
   BVS =     10 V
   BVD =     10 V
   XJBVS =      1 
   XJBVD =      1 
   JTSS =      0 A/m^2
   JTSD =      0 A/m^2
   JTSSWS =      0 A/m
   JTSSWD =      0 A/m
   JTSSWGS =      0 A/m
   JTSSWGD =      0 A/m
   JTWEFF =      0 m
   NJTS =     20 
   NJTSD =     20 
   NJTSSW =     20 
   NJTSSWD =     20 
   NJTSSWG =     20 
   NJTSSWGD =     20 
   VTSS =     10 V
   VTSD =     10 V
   VTSSWS =     10 V
   VTSSWD =     10 V
   VTSSWGS =     10 V
   VTSSWGD =     10 V
   LINTIGEN =      0 m
   NTGEN =      1 
   AIGEN =      0 m^-3V^-1
   BIGEN =      0 m^-3V^-3
   XRCRG1 =     12 
   XRCRG2 =      1 
   NSEG = 5 
   EF =      1 
   EM = 4.1e+07 V/m
   NOIA = 6.25e+39 eV^-1s^1-EFm^-3
   NOIB = 3.125e+24 eV^-1s^1-EFm^-1
   NOIC = 8.75e+07 eV^-1s^1-EFm
   NTNOI =      1 
   TNOM =  300.1 K
   TBGASUB = 0.000702 eV/K
   TBGBSUB =   1108 K
   KT1 =      0 V
   KT1L =      0 Vm
   IIT =   -0.5 
   TII =      0 
   TGIDL = -0.0003 K^-1
   IGT =    2.5 
   TCJ =      0 K^-1
   TCJSW =      0 K^-1
   TCJSWG =      0 K^-1
   TPB =      0 K^-1
   TPBSW =      0 K^-1
   TPBSWG =      0 K^-1
   XTIS =      3 
   XTID =      3 
   XTSS =   0.02 
   XTSD =   0.02 
   XTSSWS =   0.02 
   XTSSWD =   0.02 
   XTSSWGS =   0.02 
   XTSSWGD =   0.02 
   TNJTS =      0 
   TNJTSD =      0 
   TNJTSSW =      0 
   TNJTSSWD =      0 
   TNJTSSWG =      0 
   TNJTSSWGD =      0 
   RTH0 =   0.01 ohm
   CTH0 =  1e-05 F
   WTH0 =      0 m
   LNBODY =      0 
   NNBODY =      0 
   PNBODY =      0 
   LPHIG =      0 
   NPHIG =      0 
   PPHIG =      0 
   LNGATE =      0 
   NNGATE =      0 
   PNGATE =      0 
   LCIT =      0 
   NCIT =      0 
   PCIT =      0 
   LCDSC =      0 
   NCDSC =      0 
   PCDSC =      0 
   LCDSCD =      0 
   NCDSCD =      0 
   PCDSCD =      0 
   LCDSCDR =      0 
   NCDSCDR =      0 
   PCDSCDR =      0 
   LDVT0 =      0 
   NDVT0 =      0 
   PDVT0 =      0 
   LDVT1 =      0 
   NDVT1 =      0 
   PDVT1 =      0 
   LPHIN =      0 
   NPHIN =      0 
   PPHIN =      0 
   LETA0 =      0 
   NETA0 =      0 
   PETA0 =      0 
   LETA0R =      0 
   NETA0R =      0 
   PETA0R =      0 
   LDSUB =      0 
   NDSUB =      0 
   PDSUB =      0 
   LK1RSCE =      0 
   NK1RSCE =      0 
   PK1RSCE =      0 
   LLPE0 =      0 
   NLPE0 =      0 
   PLPE0 =      0 
   LQMFACTOR =      0 
   NQMFACTOR =      0 
   PQMFACTOR =      0 
   LQMTCENIV =      0 
   NQMTCENIV =      0 
   PQMTCENIV =      0 
   LQMTCENCV =      0 
   NQMTCENCV =      0 
   PQMTCENCV =      0 
   LVSAT =      0 
   NVSAT =      0 
   PVSAT =      0 
   LKSATIV =      0 
   NKSATIV =      0 
   PKSATIV =      0 
   LMEXP =      0 
   NMEXP =      0 
   PMEXP =      0 
   LPTWG =      0 
   NPTWG =      0 
   PPTWG =      0 
   LTHETASAT =      0 
   NTHETASAT =      0 
   PTHETASAT =      0 
   LU0 =      0 
   NU0 =      0 
   PU0 =      0 
   LUP =      0 
   NUP =      0 
   PUP =      0 
   LUA =      0 
   NUA =      0 
   PUA =      0 
   LEU =      0 
   NEU =      0 
   PEU =      0 
   LUD =      0 
   NUD =      0 
   PUD =      0 
   LUCS =      0 
   NUCS =      0 
   PUCS =      0 
   LPCLM =      0 
   NPCLM =      0 
   PPCLM =      0 
   LPCLMCV =      0 
   NPCLMCV =      0 
   PPCLMCV =      0 
   LRDSW =      0 
   NRDSW =      0 
   PRDSW =      0 
   LRSW =      0 
   NRSW =      0 
   PRSW =      0 
   LRDW =      0 
   NRDW =      0 
   PRDW =      0 
   LPRWG =      0 
   NPRWG =      0 
   PPRWG =      0 
   LWR =      0 
   NWR =      0 
   PWR =      0 
   LPDIBL1 =      0 
   NPDIBL1 =      0 
   PPDIBL1 =      0 
   LPDIBL2 =      0 
   NPDIBL2 =      0 
   PPDIBL2 =      0 
   LDROUT =      0 
   NDROUT =      0 
   PDROUT =      0 
   LPVAG =      0 
   NPVAG =      0 
   PPVAG =      0 
   LAIGBINV =      0 
   NAIGBINV =      0 
   PAIGBINV =      0 
   LBIGBINV =      0 
   NBIGBINV =      0 
   PBIGBINV =      0 
   LCIGBINV =      0 
   NCIGBINV =      0 
   PCIGBINV =      0 
   LEIGBINV =      0 
   NEIGBINV =      0 
   PEIGBINV =      0 
   LNIGBINV =      0 
   NNIGBINV =      0 
   PNIGBINV =      0 
   LAIGC =      0 
   NAIGC =      0 
   PAIGC =      0 
   LBIGC =      0 
   NBIGC =      0 
   PBIGC =      0 
   LCIGC =      0 
   NCIGC =      0 
   PCIGC =      0 
   LNIGC =      0 
   NNIGC =      0 
   PNIGC =      0 
   LAIGS =      0 
   NAIGS =      0 
   PAIGS =      0 
   LBIGS =      0 
   NBIGS =      0 
   PBIGS =      0 
   LCIGS =      0 
   NCIGS =      0 
   PCIGS =      0 
   LAIGD =      0 
   NAIGD =      0 
   PAIGD =      0 
   LBIGD =      0 
   NBIGD =      0 
   PBIGD =      0 
   LCIGD =      0 
   NCIGD =      0 
   PCIGD =      0 
   LPOXEDGE =      0 
   NPOXEDGE =      0 
   PPOXEDGE =      0 
   LAGIDL =      0 
   NAGIDL =      0 
   PAGIDL =      0 
   LBGIDL =      0 
   NBGIDL =      0 
   PBGIDL =      0 
   LEGIDL =      0 
   NEGIDL =      0 
   PEGIDL =      0 
   LAGISL =      0 
   NAGISL =      0 
   PAGISL =      0 
   LBGISL =      0 
   NBGISL =      0 
   PBGISL =      0 
   LEGISL =      0 
   NEGISL =      0 
   PEGISL =      0 
   LALPHA0 =      0 
   NALPHA0 =      0 
   PALPHA0 =      0 
   LALPHA1 =      0 
   NALPHA1 =      0 
   PALPHA1 =      0 
   LBETA0 =      0 
   NBETA0 =      0 
   PBETA0 =      0 
   LALPHAII =      0 
   NALPHAII =      0 
   PALPHAII =      0 
   LBETAII0 =      0 
   NBETAII0 =      0 
   PBETAII0 =      0 
   LBETAII1 =      0 
   NBETAII1 =      0 
   PBETAII1 =      0 
   LBETAII2 =      0 
   NBETAII2 =      0 
   PBETAII2 =      0 
   LESATII =      0 
   NESATII =      0 
   PESATII =      0 
   LLII =      0 
   NLII =      0 
   PLII =      0 
   LSII0 =      0 
   NSII0 =      0 
   PSII0 =      0 
   LSII1 =      0 
   NSII1 =      0 
   PSII1 =      0 
   LSII2 =      0 
   NSII2 =      0 
   PSII2 =      0 
   LSIID =      0 
   NSIID =      0 
   PSIID =      0 
   LCFS =      0 
   NCFS =      0 
   PCFS =      0 
   LCFD =      0 
   NCFD =      0 
   PCFD =      0 
   LCOVS =      0 
   NCOVS =      0 
   PCOVS =      0 
   LCOVD =      0 
   NCOVD =      0 
   PCOVD =      0 
   LCGSL =      0 
   NCGSL =      0 
   PCGSL =      0 
   LCGDL =      0 
   NCGDL =      0 
   PCGDL =      0 
   LCKAPPAS =      0 
   NCKAPPAS =      0 
   PCKAPPAS =      0 
   LCKAPPAD =      0 
   NCKAPPAD =      0 
   PCKAPPAD =      0 
   LCGBL =      0 
   NCGBL =      0 
   PCGBL =      0 
   LCKAPPAB =      0 
   NCKAPPAB =      0 
   PCKAPPAB =      0 
   LNTGEN =      0 
   NNTGEN =      0 
   PNTGEN =      0 
   LAIGEN =      0 
   NAIGEN =      0 
   PAIGEN =      0 
   LBIGEN =      0 
   NBIGEN =      0 
   PBIGEN =      0 
   LXRCRG1 =      0 
   NXRCRG1 =      0 
   PXRCRG1 =      0 
   LXRCRG2 =      0 
   NXRCRG2 =      0 
   PXRCRG2 =      0 
   LINTNOI =      0 
   NINTNOI =      0 
   PINTNOI =      0 
   LUTE =      0 
   NUTE =      0 
   PUTE =      0 
   LUTL =      0 
   NUTL =      0 
   PUTL =      0 
   LUA1 =      0 
   NUA1 =      0 
   PUA1 =      0 
   LUD1 =      0 
   NUD1 =      0 
   PUD1 =      0 
   LUCSTE =      0 
   NUCSTE =      0 
   PUCSTE =      0 
   LPTWGT =      0 
   NPTWGT =      0 
   PPTWGT =      0 
   LAT =      0 
   NAT =      0 
   PAT =      0 
   LSTTHETASAT =      0 
   NSTTHETASAT =      0 
   PSTTHETASAT =      0 
   LPRT =      0 
   NPRT =      0 
   PPRT =      0 
   LIIT =      0 
   NIIT =      0 
   PIIT =      0 
   LTII =      0 
   NTII =      0 
   PTII =      0 
   LTGIDL =      0 
   NTGIDL =      0 
   PTGIDL =      0 
   LIGT =      0 
   NIGT =      0 
   PIGT =      0 
   L = 1.4e-08 m
   D =  4e-08 m
   TFIN =  8e-09 m
   FPITCH = 2.8e-08 m
   NF = 1 
   NFIN = 1 
   NGCON = 1 
   ASEO =      0 m^2
   ADEO =      0 m^2
   PSEO =      0 m
   PDEO =      0 m
   ASEJ =      0 m^2
   ADEJ =      0 m^2
   PSEJ =      0 m
   PDEJ =      0 m
   CGSP =      0 F
   CGDP =      0 F
   CDSP =      0 F
   NRS =      0 
   NRD =      0 
   LRSD = 1.4e-08 m
   XL =      0 m
   DELVTRAND =      0 
   U0MULT =      1 
   IDS0MULT =      1 
   Lmin =  1e-08 m
   Lmax =  3e-08 m
   NFINmin = 0 
   NFINmax = 1 
   LVSAT1 =      0 
   NVSAT1 =      0 
   PVSAT1 =      0 
   LETAMOB =      0 
   NETAMOB =      0 
   PETAMOB =      0 
   LPCLMG =      0 
   NPCLMG =      0 
   PPCLMG =      0 
   LVASAT =      0 
   NVASAT =      0 
   PVASAT =      0 
   LAIGBACC =      0 
   NAIGBACC =      0 
   PAIGBACC =      0 
   LBIGBACC =      0 
   NBIGBACC =      0 
   PBIGBACC =      0 
   LCIGBACC =      0 
   NCIGBACC =      0 
   PCIGBACC =      0 
   LNIGBACC =      0 
   NNIGBACC =      0 
   PNIGBACC =      0 
 Model Name: pfet 
 BSIM-MG BULK Model(Level72)
   VERSION = 105.03  
   DEVTYPE = -1 
   BULKMOD = 1  
   COREMOD = 0 
   GEOMOD = 1 
   RDSMOD = 1 
   IGCMOD = 1 
   IGBMOD = 1 
   GIDLMOD = 0 
   IIMOD = 0 
   NQSMOD = 0 
   SHMOD = 0 
   RGATEMOD = 0 
   RGEOMOD = 1 
   CGEOMOD = 2 
   CAPMOD = 0 
   LINT =      0 m
   LL =      0 m^(LLN+1)
   LLN =      1 
   DLC =      0 m
   DLBIN =      0 
   LLC =      0 m^(LLN+1)
   EOT = 8.8e-10 m
   TOXP = 1.2e-09 m
   EOTBOX = 1.4e-07 m
   HFIN = 2.1e-08 m
   FECH =      1 
   DELTAW =      0 m
   FECHCV =      1 
   DELTAWCV =      0 m
   NBODY = 2.5e+22 m^-3
   NSD =  3e+26 m^-3
   PHIG =  4.566 eV
   EPSROX =    3.9 
   EPSRSUB =   11.9 
   EASUB =   4.05 eV
   NI0SUB = 1.1e+16 m^-3
   BG0SUB =   1.12 eV
   NC0SUB = 2.86e+25 m^-3
   NGATE =      0 m^-3
   CIT = 1.3e-05 F/m^2
   CDSC =  0.024 F/m^2
   CDSCD =  0.007 F/m^2
   CDSCDR =  0.007 
   DVT0 =   0.01 
   DVT1 =   0.69 
   PHIN =   0.05 V
   ETA0 =   0.57 
   ETA0R =   0.57 
   DSUB =    0.9 
   K1RSCE =      0 V^1/2
   LPE0 =  5e-09 m
   DVTSHIFT =      0 
   QMFACTOR =      0 
   QMTCENIV =      0 
   QMTCENCV =      0 
   AQMTCEN =      0 
   BQMTCEN = 1.2e-08 
   ETAQM =   0.54 
   QM0 = 0.001143 
   PQM =   0.66 
   QM0ACC =  0.001 
   PQMACC =   0.66 
   VSAT = 1.29e+05 
   AVSAT =      0 
   BVSAT =  1e-07 
   VSAT1 = 1.29e+05 
   AVSAT1 =      0 
   BVSAT1 =  1e-07 
   DELTAVSAT =      1 
   KSATIV =    0.8 
   MEXP =      3 
   AMEXP =      0 
   BMEXP =      1 
   PTWG =      0 
   APTWG =      0 
   BPTWG =  1e-07 
   AT = -0.00156 
   TMEXP =      0 
   PTWGT =  0.004 
   U0 =  0.036 
   ETAMOB =      2 
   UP =      0 
   LPA =      1 
   UA =    0.3 
   AUA =      0 
   BUA =  1e-07 
   EU =    1.8 
   AEU =      0 
   BEU =  1e-07 
   UD =      0 
   AUD =      0 
   BUD =  5e-08 
   UCS =      0 
   UTE =      0 
   UTL = -0.0015 
   UA1 = 0.001032 
   UD1 =      0 
   UCSTE = -0.00478 
   RDSWMIN =      0 
   RDSW =    100 
   ARDSW =      0 
   BRDSW =  1e-07 
   RSWMIN =      0 
   RSW =      0 
   ARSW =      0 
   BRSW =  1e-07 
   RDWMIN =      0 
   RDW =      0 
   ARDW =      0 
   BRDW =  1e-07 
   PRWG =      0 
   WR =      1 
   PRT =  0.001 
   PDIBL1 =    1.3 
   PDIBL2 = 0.0002 
   DROUT =   1.06 
   PVAG =      1 
   PCLM =    0.2 
   APCLM =      0 
   BPCLM =  1e-07 
   PCLMG =      0 
   VASAT =    0.6 
   PCLMCV =  0.013 
   PCLMGCV =      0 
   VASATCV =    0.2 
   RGEXT =      0 ohm
   RGFIN =  0.001 ohm
   RSHS =      0 ohm
   RSHD =      0 ohm
   HEPI = 8.5e-09 m
   TSILI =  7e-09 m
   RHOC =  7e-13 ohm/m^2
   RHORSD =      1 ohm/m
   RHOEXT =      1 ohm/m
   CRATIO =    0.5 
   DELTAPRSD =      0 m
   SDTERM = 0 
   LSP = 2.8e-09 m
   LDG =  2e-09 m
   EPSRSP =    3.9 
   TGATE =  8e-09 m
   TMASK =      0 m
   ASILIEND =      0 m^2
   ARSDEND =      0 m^2
   PRSDEND =      0 m
   NSDE =  6e+25 m^-3
   RGEOA =      1 
   RGEOB =      0 m^-1
   RGEOC =      0 m^-1
   RGEOD =      0 m^-1
   RGEOE =      0 m^-1
   CGEOA =      1 
   CGEOB =      0 m^-1
   CGEOC =      0 m^-1
   CGEOD =      0 m^-1
   CGEOE =      1 
   AIGBINV = 0.0111 (Fs^2/g)^0.5m^-1
   BIGBINV =   0.03 (Fs^2/g)^0.5m^-1
   CIGBINV =  0.006 V^-1
   EIGBINV =    1.1 V
   NIGBINV =    1.2 
   AIGBACC = 0.0149 
   BIGBACC = 0.000949 
   CIGBACC =  0.075 
   NIGBACC =      3 
   AIGC = 0.0136 (Fs^2/g)^0.5m^-1
   BIGC = 0.00171 (Fs^2/g)^0.5m^-1V^-1
   CIGC =  0.075 V^-1
   NIGC =      1 
   DLCIGS =      0 m
   AIGS = 0.0136 (Fs^2/g)^0.5m^-1
   BIGS = 0.00171 (Fs^2/g)^0.5m^-1V^-1
   CIGS =  0.075 V^-1
   DLCIGD =      0 m
   AIGD = 0.0136 (Fs^2/g)^0.5m^-1
   BIGD = 0.00171 (Fs^2/g)^0.5m^-1V^-1
   CIGD =  0.075 V^-1
   POXEDGE =      1 
   AGIDL = 5.729e-12 ohm^-1
   BGIDL =  3e+08 V/m
   EGIDL =    0.1 V
   AGISL = 5.729e-12 ohm^-1
   BGISL =  3e+08 V/m
   EGISL =    0.1 V
   ALPHA0 =      0 mV^-1
   ALPHA1 =      0 V^-1
   BETA0 =     30 V^-1
   ALPHAII =      0 
   BETAII0 =      0 V^-1
   BETAII1 =      0 
   BETAII2 =    0.1 V
   ESATII =  1e+07 V/m
   LII =  5e-10 V/m
   SII0 =    0.5 V^-1
   SII1 =    0.1 
   SII2 =      0 V
   SIID =      0 V
   EOTACC = 8.8e-10 m
   DELVFBACC =      0 V
   CFS = 2.56e-11 F/m
   CFD = 2.65e-11 F/m
   COVS = 2.5e-11 F/m
   COVD = 2.5e-11 F/m
   CGSO =      0 F/m
   CGDO =      0 F/m
   CGSL =      0 F/m
   CGDL =      0 F/m
   CKAPPAS =    0.6 V
   CKAPPAD =    0.6 V
   CGBO =      0 F/m
   CGBL =      0 F/m
   CKAPPAB =    0.6 V
   CSDESW =      0 F/m
   CJS = 0.0005 F/m^2
   CJD = 0.0005 F/m^2
   CJSWS =  5e-10 F/m
   CJSWD =  5e-10 F/m
   CJSWGS =      0 F/m
   CJSWGD =      0 F/m
   PBS =      1 V
   PBD =      1 V
   PBSWS =      1 V
   PBSWD =      1 V
   PBSWGS =      1 V
   PBSWGD =      1 V
   MJS, =    0.5 
   MJD =    0.5 
   MJSWS =   0.33 
   MJSWD =   0.33 
   MJSWGS =   0.33 
   MJSWGD =   0.33 
   SJS =      0 
   SJD =      0 
   SJSWS =      0 
   SJSWD =      0 
   SJSWGS =      0 
   SJSWGD =      0 
   MJS2 =  0.125 
   MJD2 =  0.125 
   MJSWS2 =   0.33 
   MJSWD2 =   0.33 
   MJSWGS2 =   0.33 
   MJSWGD2 =   0.33 
   JSS = 0.0001 A/m^2
   JSD = 0.0001 A/m^2
   JSWS =      0 A/m
   JSWD =      0 A/m
   JSWGS =      0 A/m
   JSWGD =      0 A/m
   NJS =      1 
   NJD =      1 
   IJTHSFWD =    0.1 A
   IJTHDFWD =    0.1 A
   IJTHSREV =    0.1 A
   IJTHDREV =    0.1 A
   BVS =     10 V
   BVD =     10 V
   XJBVS =      1 
   XJBVD =      1 
   JTSS =      0 A/m^2
   JTSD =      0 A/m^2
   JTSSWS =      0 A/m
   JTSSWD =      0 A/m
   JTSSWGS =      0 A/m
   JTSSWGD =      0 A/m
   JTWEFF =      0 m
   NJTS =     20 
   NJTSD =     20 
   NJTSSW =     20 
   NJTSSWD =     20 
   NJTSSWG =     20 
   NJTSSWGD =     20 
   VTSS =     10 V
   VTSD =     10 V
   VTSSWS =     10 V
   VTSSWD =     10 V
   VTSSWGS =     10 V
   VTSSWGD =     10 V
   LINTIGEN =      0 m
   NTGEN =      1 
   AIGEN =      0 m^-3V^-1
   BIGEN =      0 m^-3V^-3
   XRCRG1 =     12 
   XRCRG2 =      1 
   NSEG = 5 
   EF =      1 
   EM = 4.1e+07 V/m
   NOIA = 6.25e+39 eV^-1s^1-EFm^-3
   NOIB = 3.125e+24 eV^-1s^1-EFm^-1
   NOIC = 8.75e+07 eV^-1s^1-EFm
   NTNOI =      1 
   TNOM =  300.1 K
   TBGASUB = 0.000702 eV/K
   TBGBSUB =   1108 K
   KT1 =      0 V
   KT1L =      0 Vm
   IIT =   -0.5 
   TII =      0 
   TGIDL = -0.0003 K^-1
   IGT =    2.5 
   TCJ =      0 K^-1
   TCJSW =      0 K^-1
   TCJSWG =      0 K^-1
   TPB =      0 K^-1
   TPBSW =      0 K^-1
   TPBSWG =      0 K^-1
   XTIS =      3 
   XTID =      3 
   XTSS =   0.02 
   XTSD =   0.02 
   XTSSWS =   0.02 
   XTSSWD =   0.02 
   XTSSWGS =   0.02 
   XTSSWGD =   0.02 
   TNJTS =      0 
   TNJTSD =      0 
   TNJTSSW =      0 
   TNJTSSWD =      0 
   TNJTSSWG =      0 
   TNJTSSWGD =      0 
   RTH0 =   0.01 ohm
   CTH0 =  1e-05 F
   WTH0 =      0 m
   LNBODY =      0 
   NNBODY =      0 
   PNBODY =      0 
   LPHIG =      0 
   NPHIG =      0 
   PPHIG =      0 
   LNGATE =      0 
   NNGATE =      0 
   PNGATE =      0 
   LCIT =      0 
   NCIT =      0 
   PCIT =      0 
   LCDSC =      0 
   NCDSC =      0 
   PCDSC =      0 
   LCDSCD =      0 
   NCDSCD =      0 
   PCDSCD =      0 
   LCDSCDR =      0 
   NCDSCDR =      0 
   PCDSCDR =      0 
   LDVT0 =      0 
   NDVT0 =      0 
   PDVT0 =      0 
   LDVT1 =      0 
   NDVT1 =      0 
   PDVT1 =      0 
   LPHIN =      0 
   NPHIN =      0 
   PPHIN =      0 
   LETA0 =      0 
   NETA0 =      0 
   PETA0 =      0 
   LETA0R =      0 
   NETA0R =      0 
   PETA0R =      0 
   LDSUB =      0 
   NDSUB =      0 
   PDSUB =      0 
   LK1RSCE =      0 
   NK1RSCE =      0 
   PK1RSCE =      0 
   LLPE0 =      0 
   NLPE0 =      0 
   PLPE0 =      0 
   LQMFACTOR =      0 
   NQMFACTOR =      0 
   PQMFACTOR =      0 
   LQMTCENIV =      0 
   NQMTCENIV =      0 
   PQMTCENIV =      0 
   LQMTCENCV =      0 
   NQMTCENCV =      0 
   PQMTCENCV =      0 
   LVSAT =      0 
   NVSAT =      0 
   PVSAT =      0 
   LKSATIV =      0 
   NKSATIV =      0 
   PKSATIV =      0 
   LMEXP =      0 
   NMEXP =      0 
   PMEXP =      0 
   LPTWG =      0 
   NPTWG =      0 
   PPTWG =      0 
   LTHETASAT =      0 
   NTHETASAT =      0 
   PTHETASAT =      0 
   LU0 =      0 
   NU0 =      0 
   PU0 =      0 
   LUP =      0 
   NUP =      0 
   PUP =      0 
   LUA =      0 
   NUA =      0 
   PUA =      0 
   LEU =      0 
   NEU =      0 
   PEU =      0 
   LUD =      0 
   NUD =      0 
   PUD =      0 
   LUCS =      0 
   NUCS =      0 
   PUCS =      0 
   LPCLM =      0 
   NPCLM =      0 
   PPCLM =      0 
   LPCLMCV =      0 
   NPCLMCV =      0 
   PPCLMCV =      0 
   LRDSW =      0 
   NRDSW =      0 
   PRDSW =      0 
   LRSW =      0 
   NRSW =      0 
   PRSW =      0 
   LRDW =      0 
   NRDW =      0 
   PRDW =      0 
   LPRWG =      0 
   NPRWG =      0 
   PPRWG =      0 
   LWR =      0 
   NWR =      0 
   PWR =      0 
   LPDIBL1 =      0 
   NPDIBL1 =      0 
   PPDIBL1 =      0 
   LPDIBL2 =      0 
   NPDIBL2 =      0 
   PPDIBL2 =      0 
   LDROUT =      0 
   NDROUT =      0 
   PDROUT =      0 
   LPVAG =      0 
   NPVAG =      0 
   PPVAG =      0 
   LAIGBINV =      0 
   NAIGBINV =      0 
   PAIGBINV =      0 
   LBIGBINV =      0 
   NBIGBINV =      0 
   PBIGBINV =      0 
   LCIGBINV =      0 
   NCIGBINV =      0 
   PCIGBINV =      0 
   LEIGBINV =      0 
   NEIGBINV =      0 
   PEIGBINV =      0 
   LNIGBINV =      0 
   NNIGBINV =      0 
   PNIGBINV =      0 
   LAIGC =      0 
   NAIGC =      0 
   PAIGC =      0 
   LBIGC =      0 
   NBIGC =      0 
   PBIGC =      0 
   LCIGC =      0 
   NCIGC =      0 
   PCIGC =      0 
   LNIGC =      0 
   NNIGC =      0 
   PNIGC =      0 
   LAIGS =      0 
   NAIGS =      0 
   PAIGS =      0 
   LBIGS =      0 
   NBIGS =      0 
   PBIGS =      0 
   LCIGS =      0 
   NCIGS =      0 
   PCIGS =      0 
   LAIGD =      0 
   NAIGD =      0 
   PAIGD =      0 
   LBIGD =      0 
   NBIGD =      0 
   PBIGD =      0 
   LCIGD =      0 
   NCIGD =      0 
   PCIGD =      0 
   LPOXEDGE =      0 
   NPOXEDGE =      0 
   PPOXEDGE =      0 
   LAGIDL =      0 
   NAGIDL =      0 
   PAGIDL =      0 
   LBGIDL =      0 
   NBGIDL =      0 
   PBGIDL =      0 
   LEGIDL =      0 
   NEGIDL =      0 
   PEGIDL =      0 
   LAGISL =      0 
   NAGISL =      0 
   PAGISL =      0 
   LBGISL =      0 
   NBGISL =      0 
   PBGISL =      0 
   LEGISL =      0 
   NEGISL =      0 
   PEGISL =      0 
   LALPHA0 =      0 
   NALPHA0 =      0 
   PALPHA0 =      0 
   LALPHA1 =      0 
   NALPHA1 =      0 
   PALPHA1 =      0 
   LBETA0 =      0 
   NBETA0 =      0 
   PBETA0 =      0 
   LALPHAII =      0 
   NALPHAII =      0 
   PALPHAII =      0 
   LBETAII0 =      0 
   NBETAII0 =      0 
   PBETAII0 =      0 
   LBETAII1 =      0 
   NBETAII1 =      0 
   PBETAII1 =      0 
   LBETAII2 =      0 
   NBETAII2 =      0 
   PBETAII2 =      0 
   LESATII =      0 
   NESATII =      0 
   PESATII =      0 
   LLII =      0 
   NLII =      0 
   PLII =      0 
   LSII0 =      0 
   NSII0 =      0 
   PSII0 =      0 
   LSII1 =      0 
   NSII1 =      0 
   PSII1 =      0 
   LSII2 =      0 
   NSII2 =      0 
   PSII2 =      0 
   LSIID =      0 
   NSIID =      0 
   PSIID =      0 
   LCFS =      0 
   NCFS =      0 
   PCFS =      0 
   LCFD =      0 
   NCFD =      0 
   PCFD =      0 
   LCOVS =      0 
   NCOVS =      0 
   PCOVS =      0 
   LCOVD =      0 
   NCOVD =      0 
   PCOVD =      0 
   LCGSL =      0 
   NCGSL =      0 
   PCGSL =      0 
   LCGDL =      0 
   NCGDL =      0 
   PCGDL =      0 
   LCKAPPAS =      0 
   NCKAPPAS =      0 
   PCKAPPAS =      0 
   LCKAPPAD =      0 
   NCKAPPAD =      0 
   PCKAPPAD =      0 
   LCGBL =      0 
   NCGBL =      0 
   PCGBL =      0 
   LCKAPPAB =      0 
   NCKAPPAB =      0 
   PCKAPPAB =      0 
   LNTGEN =      0 
   NNTGEN =      0 
   PNTGEN =      0 
   LAIGEN =      0 
   NAIGEN =      0 
   PAIGEN =      0 
   LBIGEN =      0 
   NBIGEN =      0 
   PBIGEN =      0 
   LXRCRG1 =      0 
   NXRCRG1 =      0 
   PXRCRG1 =      0 
   LXRCRG2 =      0 
   NXRCRG2 =      0 
   PXRCRG2 =      0 
   LINTNOI =      0 
   NINTNOI =      0 
   PINTNOI =      0 
   LUTE =      0 
   NUTE =      0 
   PUTE =      0 
   LUTL =      0 
   NUTL =      0 
   PUTL =      0 
   LUA1 =      0 
   NUA1 =      0 
   PUA1 =      0 
   LUD1 =      0 
   NUD1 =      0 
   PUD1 =      0 
   LUCSTE =      0 
   NUCSTE =      0 
   PUCSTE =      0 
   LPTWGT =      0 
   NPTWGT =      0 
   PPTWGT =      0 
   LAT =      0 
   NAT =      0 
   PAT =      0 
   LSTTHETASAT =      0 
   NSTTHETASAT =      0 
   PSTTHETASAT =      0 
   LPRT =      0 
   NPRT =      0 
   PPRT =      0 
   LIIT =      0 
   NIIT =      0 
   PIIT =      0 
   LTII =      0 
   NTII =      0 
   PTII =      0 
   LTGIDL =      0 
   NTGIDL =      0 
   PTGIDL =      0 
   LIGT =      0 
   NIGT =      0 
   PIGT =      0 
   L = 1.4e-08 m
   D =  4e-08 m
   TFIN =  8e-09 m
   FPITCH = 2.8e-08 m
   NF = 1 
   NFIN = 1 
   NGCON = 1 
   ASEO =      0 m^2
   ADEO =      0 m^2
   PSEO =      0 m
   PDEO =      0 m
   ASEJ =      0 m^2
   ADEJ =      0 m^2
   PSEJ =      0 m
   PDEJ =      0 m
   CGSP =      0 F
   CGDP =      0 F
   CDSP =      0 F
   NRS =      0 
   NRD =      0 
   LRSD = 1.4e-08 m
   XL =      0 m
   DELVTRAND =      0 
   U0MULT =      1 
   IDS0MULT =      1 
   Lmin =  1e-08 m
   Lmax =  3e-08 m
   NFINmin = 0 
   NFINmax = 1 
   LVSAT1 =      0 
   NVSAT1 =      0 
   PVSAT1 =      0 
   LETAMOB =      0 
   NETAMOB =      0 
   PETAMOB =      0 
   LPCLMG =      0 
   NPCLMG =      0 
   PPCLMG =      0 
   LVASAT =      0 
   NVASAT =      0 
   PVASAT =      0 
   LAIGBACC =      0 
   NAIGBACC =      0 
   PAIGBACC =      0 
   LBIGBACC =      0 
   NBIGBACC =      0 
   PBIGBACC =      0 
   LCIGBACC =      0 
   NCIGBACC =      0 
   PCIGBACC =      0 
   LNIGBACC =      0 
   NNIGBACC =      0 
   PNIGBACC =      0 
 Model Name: nfet 
 BSIM-MG BULK Model(Level72)
   VERSION = 105.03  
   DEVTYPE = 1 
   BULKMOD = 1  
   COREMOD = 0 
   GEOMOD = 1 
   RDSMOD = 1 
   IGCMOD = 1 
   IGBMOD = 1 
   GIDLMOD = 0 
   IIMOD = 0 
   NQSMOD = 0 
   SHMOD = 0 
   RGATEMOD = 0 
   RGEOMOD = 1 
   CGEOMOD = 2 
   CAPMOD = 0 
   LINT =      0 m
   LL =      0 m^(LLN+1)
   LLN =      1 
   DLC =      0 m
   DLBIN =      0 
   LLC =      0 m^(LLN+1)
   EOT = 8.8e-10 m
   TOXP = 1.2e-09 m
   EOTBOX = 1.4e-07 m
   HFIN = 2.1e-08 m
   FECH =      1 
   DELTAW =      0 m
   FECHCV =      1 
   DELTAWCV =      0 m
   NBODY = 2.5e+22 m^-3
   NSD =  3e+26 m^-3
   PHIG =  4.604 eV
   EPSROX =    3.9 
   EPSRSUB =   11.9 
   EASUB =   4.05 eV
   NI0SUB = 1.1e+16 m^-3
   BG0SUB =   1.12 eV
   NC0SUB = 2.86e+25 m^-3
   NGATE =      0 m^-3
   CIT = 1.3e-05 F/m^2
   CDSC =  0.022 F/m^2
   CDSCD =  0.007 F/m^2
   CDSCDR =  0.007 
   DVT0 =   0.01 
   DVT1 =   0.69 
   PHIN =   0.05 V
   ETA0 = 0.4079 
   ETA0R = 0.4079 
   DSUB =    0.9 
   K1RSCE =      0 V^1/2
   LPE0 =  5e-09 m
   DVTSHIFT =      0 
   QMFACTOR =      0 
   QMTCENIV =      0 
   QMTCENCV =      0 
   AQMTCEN =      0 
   BQMTCEN = 1.2e-08 
   ETAQM =   0.54 
   QM0 = 0.001143 
   PQM =   0.66 
   QM0ACC =  0.001 
   PQMACC =   0.66 
   VSAT = 1.32e+05 
   AVSAT =      0 
   BVSAT =  1e-07 
   VSAT1 = 1.32e+05 
   AVSAT1 =      0 
   BVSAT1 =  1e-07 
   DELTAVSAT =      1 
   KSATIV =    0.8 
   MEXP =      3 
   AMEXP =      0 
   BMEXP =      1 
   PTWG =      0 
   APTWG =      0 
   BPTWG =  1e-07 
   AT = -0.00156 
   TMEXP =      0 
   PTWGT =  0.004 
   U0 = 0.0568 
   ETAMOB =      2 
   UP =      0 
   LPA =      1 
   UA =    0.3 
   AUA =      0 
   BUA =  1e-07 
   EU =    1.8 
   AEU =      0 
   BEU =  1e-07 
   UD =      0 
   AUD =      0 
   BUD =  5e-08 
   UCS =      0 
   UTE =      0 
   UTL = -0.0015 
   UA1 = 0.001032 
   UD1 =      0 
   UCSTE = -0.00478 
   RDSWMIN =      0 
   RDSW =    100 
   ARDSW =      0 
   BRDSW =  1e-07 
   RSWMIN =      0 
   RSW =      0 
   ARSW =      0 
   BRSW =  1e-07 
   RDWMIN =      0 
   RDW =      0 
   ARDW =      0 
   BRDW =  1e-07 
   PRWG =      0 
   WR =      1 
   PRT =  0.001 
   PDIBL1 =    1.3 
   PDIBL2 = 0.0002 
   DROUT =   1.06 
   PVAG =      1 
   PCLM =    0.2 
   APCLM =      0 
   BPCLM =  1e-07 
   PCLMG =      0 
   VASAT =    0.6 
   PCLMCV =  0.013 
   PCLMGCV =      0 
   VASATCV =    0.2 
   RGEXT =      0 ohm
   RGFIN =  0.001 ohm
   RSHS =      0 ohm
   RSHD =      0 ohm
   HEPI = 8.5e-09 m
   TSILI =  7e-09 m
   RHOC =  6e-13 ohm/m^2
   RHORSD =      1 ohm/m
   RHOEXT =      1 ohm/m
   CRATIO =    0.5 
   DELTAPRSD =      0 m
   SDTERM = 0 
   LSP = 2.8e-09 m
   LDG =  2e-09 m
   EPSRSP =    3.9 
   TGATE =  8e-09 m
   TMASK =      0 m
   ASILIEND =      0 m^2
   ARSDEND =      0 m^2
   PRSDEND =      0 m
   NSDE =  6e+25 m^-3
   RGEOA =      1 
   RGEOB =      0 m^-1
   RGEOC =      0 m^-1
   RGEOD =      0 m^-1
   RGEOE =      0 m^-1
   CGEOA =      1 
   CGEOB =      0 m^-1
   CGEOC =      0 m^-1
   CGEOD =      0 m^-1
   CGEOE =      1 
   AIGBINV = 0.0111 (Fs^2/g)^0.5m^-1
   BIGBINV =   0.03 (Fs^2/g)^0.5m^-1
   CIGBINV =  0.006 V^-1
   EIGBINV =    1.1 V
   NIGBINV =    1.2 
   AIGBACC = 0.0149 
   BIGBACC = 0.000949 
   CIGBACC =  0.075 
   NIGBACC =      3 
   AIGC = 0.0136 (Fs^2/g)^0.5m^-1
   BIGC = 0.00171 (Fs^2/g)^0.5m^-1V^-1
   CIGC =  0.075 V^-1
   NIGC =      1 
   DLCIGS =      0 m
   AIGS = 0.0136 (Fs^2/g)^0.5m^-1
   BIGS = 0.00171 (Fs^2/g)^0.5m^-1V^-1
   CIGS =  0.075 V^-1
   DLCIGD =      0 m
   AIGD = 0.0136 (Fs^2/g)^0.5m^-1
   BIGD = 0.00171 (Fs^2/g)^0.5m^-1V^-1
   CIGD =  0.075 V^-1
   POXEDGE =      1 
   AGIDL = 5.729e-12 ohm^-1
   BGIDL =  3e+08 V/m
   EGIDL =    0.1 V
   AGISL = 5.729e-12 ohm^-1
   BGISL =  3e+08 V/m
   EGISL =    0.1 V
   ALPHA0 =      0 mV^-1
   ALPHA1 =      0 V^-1
   BETA0 =     30 V^-1
   ALPHAII =      0 
   BETAII0 =      0 V^-1
   BETAII1 =      0 
   BETAII2 =    0.1 V
   ESATII =  1e+07 V/m
   LII =  5e-10 V/m
   SII0 =    0.5 V^-1
   SII1 =    0.1 
   SII2 =      0 V
   SIID =      0 V
   EOTACC = 8.8e-10 m
   DELVFBACC =      0 V
   CFS = 2.56e-11 F/m
   CFD = 2.65e-11 F/m
   COVS = 2.5e-11 F/m
   COVD = 2.5e-11 F/m
   CGSO =      0 F/m
   CGDO =      0 F/m
   CGSL =      0 F/m
   CGDL =      0 F/m
   CKAPPAS =    0.6 V
   CKAPPAD =    0.6 V
   CGBO =      0 F/m
   CGBL =      0 F/m
   CKAPPAB =    0.6 V
   CSDESW =      0 F/m
   CJS = 0.0005 F/m^2
   CJD = 0.0005 F/m^2
   CJSWS =  5e-10 F/m
   CJSWD =  5e-10 F/m
   CJSWGS =      0 F/m
   CJSWGD =      0 F/m
   PBS =      1 V
   PBD =      1 V
   PBSWS =      1 V
   PBSWD =      1 V
   PBSWGS =      1 V
   PBSWGD =      1 V
   MJS, =    0.5 
   MJD =    0.5 
   MJSWS =   0.33 
   MJSWD =   0.33 
   MJSWGS =   0.33 
   MJSWGD =   0.33 
   SJS =      0 
   SJD =      0 
   SJSWS =      0 
   SJSWD =      0 
   SJSWGS =      0 
   SJSWGD =      0 
   MJS2 =  0.125 
   MJD2 =  0.125 
   MJSWS2 =   0.33 
   MJSWD2 =   0.33 
   MJSWGS2 =   0.33 
   MJSWGD2 =   0.33 
   JSS = 0.0001 A/m^2
   JSD = 0.0001 A/m^2
   JSWS =      0 A/m
   JSWD =      0 A/m
   JSWGS =      0 A/m
   JSWGD =      0 A/m
   NJS =      1 
   NJD =      1 
   IJTHSFWD =    0.1 A
   IJTHDFWD =    0.1 A
   IJTHSREV =    0.1 A
   IJTHDREV =    0.1 A
   BVS =     10 V
   BVD =     10 V
   XJBVS =      1 
   XJBVD =      1 
   JTSS =      0 A/m^2
   JTSD =      0 A/m^2
   JTSSWS =      0 A/m
   JTSSWD =      0 A/m
   JTSSWGS =      0 A/m
   JTSSWGD =      0 A/m
   JTWEFF =      0 m
   NJTS =     20 
   NJTSD =     20 
   NJTSSW =     20 
   NJTSSWD =     20 
   NJTSSWG =     20 
   NJTSSWGD =     20 
   VTSS =     10 V
   VTSD =     10 V
   VTSSWS =     10 V
   VTSSWD =     10 V
   VTSSWGS =     10 V
   VTSSWGD =     10 V
   LINTIGEN =      0 m
   NTGEN =      1 
   AIGEN =      0 m^-3V^-1
   BIGEN =      0 m^-3V^-3
   XRCRG1 =     12 
   XRCRG2 =      1 
   NSEG = 5 
   EF =      1 
   EM = 4.1e+07 V/m
   NOIA = 6.25e+39 eV^-1s^1-EFm^-3
   NOIB = 3.125e+24 eV^-1s^1-EFm^-1
   NOIC = 8.75e+07 eV^-1s^1-EFm
   NTNOI =      1 
   TNOM =  300.1 K
   TBGASUB = 0.000702 eV/K
   TBGBSUB =   1108 K
   KT1 =      0 V
   KT1L =      0 Vm
   IIT =   -0.5 
   TII =      0 
   TGIDL = -0.0003 K^-1
   IGT =    2.5 
   TCJ =      0 K^-1
   TCJSW =      0 K^-1
   TCJSWG =      0 K^-1
   TPB =      0 K^-1
   TPBSW =      0 K^-1
   TPBSWG =      0 K^-1
   XTIS =      3 
   XTID =      3 
   XTSS =   0.02 
   XTSD =   0.02 
   XTSSWS =   0.02 
   XTSSWD =   0.02 
   XTSSWGS =   0.02 
   XTSSWGD =   0.02 
   TNJTS =      0 
   TNJTSD =      0 
   TNJTSSW =      0 
   TNJTSSWD =      0 
   TNJTSSWG =      0 
   TNJTSSWGD =      0 
   RTH0 =   0.01 ohm
   CTH0 =  1e-05 F
   WTH0 =      0 m
   LNBODY =      0 
   NNBODY =      0 
   PNBODY =      0 
   LPHIG =      0 
   NPHIG =      0 
   PPHIG =      0 
   LNGATE =      0 
   NNGATE =      0 
   PNGATE =      0 
   LCIT =      0 
   NCIT =      0 
   PCIT =      0 
   LCDSC =      0 
   NCDSC =      0 
   PCDSC =      0 
   LCDSCD =      0 
   NCDSCD =      0 
   PCDSCD =      0 
   LCDSCDR =      0 
   NCDSCDR =      0 
   PCDSCDR =      0 
   LDVT0 =      0 
   NDVT0 =      0 
   PDVT0 =      0 
   LDVT1 =      0 
   NDVT1 =      0 
   PDVT1 =      0 
   LPHIN =      0 
   NPHIN =      0 
   PPHIN =      0 
   LETA0 =      0 
   NETA0 =      0 
   PETA0 =      0 
   LETA0R =      0 
   NETA0R =      0 
   PETA0R =      0 
   LDSUB =      0 
   NDSUB =      0 
   PDSUB =      0 
   LK1RSCE =      0 
   NK1RSCE =      0 
   PK1RSCE =      0 
   LLPE0 =      0 
   NLPE0 =      0 
   PLPE0 =      0 
   LQMFACTOR =      0 
   NQMFACTOR =      0 
   PQMFACTOR =      0 
   LQMTCENIV =      0 
   NQMTCENIV =      0 
   PQMTCENIV =      0 
   LQMTCENCV =      0 
   NQMTCENCV =      0 
   PQMTCENCV =      0 
   LVSAT =      0 
   NVSAT =      0 
   PVSAT =      0 
   LKSATIV =      0 
   NKSATIV =      0 
   PKSATIV =      0 
   LMEXP =      0 
   NMEXP =      0 
   PMEXP =      0 
   LPTWG =      0 
   NPTWG =      0 
   PPTWG =      0 
   LTHETASAT =      0 
   NTHETASAT =      0 
   PTHETASAT =      0 
   LU0 =      0 
   NU0 =      0 
   PU0 =      0 
   LUP =      0 
   NUP =      0 
   PUP =      0 
   LUA =      0 
   NUA =      0 
   PUA =      0 
   LEU =      0 
   NEU =      0 
   PEU =      0 
   LUD =      0 
   NUD =      0 
   PUD =      0 
   LUCS =      0 
   NUCS =      0 
   PUCS =      0 
   LPCLM =      0 
   NPCLM =      0 
   PPCLM =      0 
   LPCLMCV =      0 
   NPCLMCV =      0 
   PPCLMCV =      0 
   LRDSW =      0 
   NRDSW =      0 
   PRDSW =      0 
   LRSW =      0 
   NRSW =      0 
   PRSW =      0 
   LRDW =      0 
   NRDW =      0 
   PRDW =      0 
   LPRWG =      0 
   NPRWG =      0 
   PPRWG =      0 
   LWR =      0 
   NWR =      0 
   PWR =      0 
   LPDIBL1 =      0 
   NPDIBL1 =      0 
   PPDIBL1 =      0 
   LPDIBL2 =      0 
   NPDIBL2 =      0 
   PPDIBL2 =      0 
   LDROUT =      0 
   NDROUT =      0 
   PDROUT =      0 
   LPVAG =      0 
   NPVAG =      0 
   PPVAG =      0 
   LAIGBINV =      0 
   NAIGBINV =      0 
   PAIGBINV =      0 
   LBIGBINV =      0 
   NBIGBINV =      0 
   PBIGBINV =      0 
   LCIGBINV =      0 
   NCIGBINV =      0 
   PCIGBINV =      0 
   LEIGBINV =      0 
   NEIGBINV =      0 
   PEIGBINV =      0 
   LNIGBINV =      0 
   NNIGBINV =      0 
   PNIGBINV =      0 
   LAIGC =      0 
   NAIGC =      0 
   PAIGC =      0 
   LBIGC =      0 
   NBIGC =      0 
   PBIGC =      0 
   LCIGC =      0 
   NCIGC =      0 
   PCIGC =      0 
   LNIGC =      0 
   NNIGC =      0 
   PNIGC =      0 
   LAIGS =      0 
   NAIGS =      0 
   PAIGS =      0 
   LBIGS =      0 
   NBIGS =      0 
   PBIGS =      0 
   LCIGS =      0 
   NCIGS =      0 
   PCIGS =      0 
   LAIGD =      0 
   NAIGD =      0 
   PAIGD =      0 
   LBIGD =      0 
   NBIGD =      0 
   PBIGD =      0 
   LCIGD =      0 
   NCIGD =      0 
   PCIGD =      0 
   LPOXEDGE =      0 
   NPOXEDGE =      0 
   PPOXEDGE =      0 
   LAGIDL =      0 
   NAGIDL =      0 
   PAGIDL =      0 
   LBGIDL =      0 
   NBGIDL =      0 
   PBGIDL =      0 
   LEGIDL =      0 
   NEGIDL =      0 
   PEGIDL =      0 
   LAGISL =      0 
   NAGISL =      0 
   PAGISL =      0 
   LBGISL =      0 
   NBGISL =      0 
   PBGISL =      0 
   LEGISL =      0 
   NEGISL =      0 
   PEGISL =      0 
   LALPHA0 =      0 
   NALPHA0 =      0 
   PALPHA0 =      0 
   LALPHA1 =      0 
   NALPHA1 =      0 
   PALPHA1 =      0 
   LBETA0 =      0 
   NBETA0 =      0 
   PBETA0 =      0 
   LALPHAII =      0 
   NALPHAII =      0 
   PALPHAII =      0 
   LBETAII0 =      0 
   NBETAII0 =      0 
   PBETAII0 =      0 
   LBETAII1 =      0 
   NBETAII1 =      0 
   PBETAII1 =      0 
   LBETAII2 =      0 
   NBETAII2 =      0 
   PBETAII2 =      0 
   LESATII =      0 
   NESATII =      0 
   PESATII =      0 
   LLII =      0 
   NLII =      0 
   PLII =      0 
   LSII0 =      0 
   NSII0 =      0 
   PSII0 =      0 
   LSII1 =      0 
   NSII1 =      0 
   PSII1 =      0 
   LSII2 =      0 
   NSII2 =      0 
   PSII2 =      0 
   LSIID =      0 
   NSIID =      0 
   PSIID =      0 
   LCFS =      0 
   NCFS =      0 
   PCFS =      0 
   LCFD =      0 
   NCFD =      0 
   PCFD =      0 
   LCOVS =      0 
   NCOVS =      0 
   PCOVS =      0 
   LCOVD =      0 
   NCOVD =      0 
   PCOVD =      0 
   LCGSL =      0 
   NCGSL =      0 
   PCGSL =      0 
   LCGDL =      0 
   NCGDL =      0 
   PCGDL =      0 
   LCKAPPAS =      0 
   NCKAPPAS =      0 
   PCKAPPAS =      0 
   LCKAPPAD =      0 
   NCKAPPAD =      0 
   PCKAPPAD =      0 
   LCGBL =      0 
   NCGBL =      0 
   PCGBL =      0 
   LCKAPPAB =      0 
   NCKAPPAB =      0 
   PCKAPPAB =      0 
   LNTGEN =      0 
   NNTGEN =      0 
   PNTGEN =      0 
   LAIGEN =      0 
   NAIGEN =      0 
   PAIGEN =      0 
   LBIGEN =      0 
   NBIGEN =      0 
   PBIGEN =      0 
   LXRCRG1 =      0 
   NXRCRG1 =      0 
   PXRCRG1 =      0 
   LXRCRG2 =      0 
   NXRCRG2 =      0 
   PXRCRG2 =      0 
   LINTNOI =      0 
   NINTNOI =      0 
   PINTNOI =      0 
   LUTE =      0 
   NUTE =      0 
   PUTE =      0 
   LUTL =      0 
   NUTL =      0 
   PUTL =      0 
   LUA1 =      0 
   NUA1 =      0 
   PUA1 =      0 
   LUD1 =      0 
   NUD1 =      0 
   PUD1 =      0 
   LUCSTE =      0 
   NUCSTE =      0 
   PUCSTE =      0 
   LPTWGT =      0 
   NPTWGT =      0 
   PPTWGT =      0 
   LAT =      0 
   NAT =      0 
   PAT =      0 
   LSTTHETASAT =      0 
   NSTTHETASAT =      0 
   PSTTHETASAT =      0 
   LPRT =      0 
   NPRT =      0 
   PPRT =      0 
   LIIT =      0 
   NIIT =      0 
   PIIT =      0 
   LTII =      0 
   NTII =      0 
   PTII =      0 
   LTGIDL =      0 
   NTGIDL =      0 
   PTGIDL =      0 
   LIGT =      0 
   NIGT =      0 
   PIGT =      0 
   L = 1.4e-08 m
   D =  4e-08 m
   TFIN =  8e-09 m
   FPITCH = 2.8e-08 m
   NF = 1 
   NFIN = 1 
   NGCON = 1 
   ASEO =      0 m^2
   ADEO =      0 m^2
   PSEO =      0 m
   PDEO =      0 m
   ASEJ =      0 m^2
   ADEJ =      0 m^2
   PSEJ =      0 m
   PDEJ =      0 m
   CGSP =      0 F
   CGDP =      0 F
   CDSP =      0 F
   NRS =      0 
   NRD =      0 
   LRSD = 1.4e-08 m
   XL =      0 m
   DELVTRAND =      0 
   U0MULT =      1 
   IDS0MULT =      1 
   Lmin =  1e-08 m
   Lmax =  3e-08 m
   NFINmin = 0 
   NFINmax = 1 
   LVSAT1 =      0 
   NVSAT1 =      0 
   PVSAT1 =      0 
   LETAMOB =      0 
   NETAMOB =      0 
   PETAMOB =      0 
   LPCLMG =      0 
   NPCLMG =      0 
   PPCLMG =      0 
   LVASAT =      0 
   NVASAT =      0 
   PVASAT =      0 
   LAIGBACC =      0 
   NAIGBACC =      0 
   PAIGBACC =      0 
   LBIGBACC =      0 
   NBIGBACC =      0 
   PBIGBACC =      0 
   LCIGBACC =      0 
   NCIGBACC =      0 
   PCIGBACC =      0 
   LNIGBACC =      0 
   NNIGBACC =      0 
   PNIGBACC =      0 
  **info** (ptm10lstp.sp:15) DC voltage reset to initial transient source value              in source        0:vin_0               new dc=  0.7500D+00
  
      
 **info** set option symb=1 internally to help for convergence.
 *****************************************************************
 ******  option summary
 ******
 runlvl  = 3         bypass  = 2         
  Opening plot unit= 15
 file=ptm10lstp.pa0                                                            

1****** HSPICE -- F-2011.09-SP2 64-BIT (Feb 27 2012) linux ******               
 ******  
 $ netlist of inverter

  ******  operating point information tnom=  25.000 temp=  25.000 *****
 ***** operating point status is voltage   simulation time is   0.000e+00
     node    =voltage       node    =voltage       node    =voltage

 + 0:inb_0   = 7.500e-01  0:inb_1   = 7.500e-01  0:outb_00 = 7.500e-01
 + 0:outb_10 = 7.500e-01  0:outin_00= 3.281e-06  0:outin_01= 3.281e-06
 + 0:outin_10= 7.500e-01  0:outin_11= 7.500e-01  0:outin_20= 3.281e-06
 + 0:outin_21= 3.281e-06  0:vdd     = 7.500e-01

 ******  
 $ netlist of inverter

  ******  transient analysis tnom=  25.000 temp=  25.000 *****
 model_uut_peak_power00= 3.8269e-03    at= 3.5050e-09
             from= 0.0000e+00    to= 4.0000e-09
 model_uut_avg_power00= 2.4883e-04  from= 0.0000e+00     to= 4.0000e-09
 model_uut_peak_power10= 4.6354e-03    at= 2.5925e-09
             from= 0.0000e+00    to= 4.0000e-09
 model_uut_avg_power10= 3.7636e-04  from= 0.0000e+00     to= 4.0000e-09
 model_uut_peak_power01= 4.3882e-03    at= 2.7600e-09
             from= 0.0000e+00    to= 4.0000e-09
 model_uut_avg_power01= 1.8696e-04  from= 0.0000e+00     to= 4.0000e-09
 model_uut_peak_power11= 2.8262e-03    at= 2.9125e-09
             from= 0.0000e+00    to= 4.0000e-09
 model_uut_avg_power11= 2.2767e-04  from= 0.0000e+00     to= 4.0000e-09
 uut_peak_power= 8.3766e-03    at= 2.5925e-09
             from= 0.0000e+00    to= 4.0000e-09
 uut_avg_power= 1.0398e-03  from= 0.0000e+00     to= 4.0000e-09
 source_peak_power= 1.0809e-02    at= 2.7600e-09
             from= 0.0000e+00    to= 4.0000e-09
 source_avg_power= 1.4388e-03  from= 0.0000e+00     to= 4.0000e-09
 trf_delay_001= 4.5532e-12  targ= 3.6380e-11   trig= 3.1827e-11
 tfr_delay_001= 4.4725e-12  targ= 1.0859e-09   trig= 1.0815e-09
 trf_delay_002= 4.3814e-12  targ= 2.0351e-09   trig= 2.0307e-09
 tfr_delay_002=-1.1209e-11  targ= 2.0513e-09   trig= 2.0625e-09
 trf_delay_101= 2.9032e-12  targ= 1.0888e-09   trig= 1.0859e-09
 tfr_delay_101= 3.1238e-12  targ= 3.9504e-11   trig= 3.6380e-11
 trf_delay_102= 1.0335e-09  targ= 3.0847e-09   trig= 2.0513e-09
 tfr_delay_102= 4.1157e-12  targ= 2.0392e-09   trig= 2.0351e-09
 trf_delay_011= 4.5532e-12  targ= 3.6380e-11   trig= 3.1827e-11
 tfr_delay_011= 2.9255e-12  targ= 2.0827e-09   trig= 2.0798e-09
 trf_delay_111=-5.8789e-14  targ= 2.0826e-09   trig= 2.0827e-09
 tfr_delay_111= 3.1238e-12  targ= 3.9504e-11   trig= 3.6380e-11
x

        time    voltage      voltage    
                 outin_00     outin_10  
  0.0000e+00    3.281e-06    7.500e-01  
  1.0000e-11   -2.227e-03    7.500e-01  
  2.0000e-11    2.433e-02    7.508e-01  
  3.0000e-11    2.963e-01    7.549e-01  
  4.0000e-11    7.147e-01    5.013e-02  
  5.0000e-11    7.472e-01    3.830e-04  
  6.0000e-11    7.500e-01    2.451e-05  
  7.0000e-11    7.500e-01   -1.516e-05  
  8.0000e-11    7.500e-01   -2.799e-06  
  9.0000e-11    7.500e-01    9.558e-06  
  1.0000e-10    7.500e-01    2.128e-05  
  1.1000e-10    7.500e-01    1.571e-05  
  1.2000e-10    7.500e-01    1.013e-05  
  1.3000e-10    7.500e-01    4.564e-06  
  1.4000e-10    7.500e-01   -1.007e-06  
  1.5000e-10    7.500e-01   -6.578e-06  
  1.6000e-10    7.500e-01   -1.215e-05  
  1.7000e-10    7.500e-01   -1.327e-05  
  1.8000e-10    7.500e-01   -1.097e-05  
  1.9000e-10    7.500e-01   -8.674e-06  
  2.0000e-10    7.500e-01   -6.374e-06  
  2.1000e-10    7.500e-01   -4.074e-06  
  2.2000e-10    7.500e-01   -1.774e-06  
  2.3000e-10    7.500e-01    5.256e-07  
  2.4000e-10    7.500e-01    2.825e-06  
  2.5000e-10    7.500e-01    5.125e-06  
  2.6000e-10    7.500e-01    7.425e-06  
  2.7000e-10    7.500e-01    9.725e-06  
  2.8000e-10    7.500e-01    1.202e-05  
  2.9000e-10    7.500e-01    1.432e-05  
  3.0000e-10    7.500e-01    1.662e-05  
  3.1000e-10    7.500e-01    1.892e-05  
  3.2000e-10    7.500e-01    2.082e-05  
  3.3000e-10    7.500e-01    1.905e-05  
  3.4000e-10    7.500e-01    1.729e-05  
  3.5000e-10    7.500e-01    1.552e-05  
  3.6000e-10    7.500e-01    1.375e-05  
  3.7000e-10    7.500e-01    1.199e-05  
  3.8000e-10    7.500e-01    1.022e-05  
  3.9000e-10    7.500e-01    8.456e-06  
  4.0000e-10    7.500e-01    6.690e-06  
  4.1000e-10    7.500e-01    4.924e-06  
  4.2000e-10    7.500e-01    3.158e-06  
  4.3000e-10    7.500e-01    1.391e-06  
  4.4000e-10    7.500e-01    0.000e+00  
  4.5000e-10    7.500e-01   -2.141e-06  
  4.6000e-10    7.500e-01   -3.907e-06  
  4.7000e-10    7.500e-01   -5.673e-06  
  4.8000e-10    7.500e-01   -7.439e-06  
  4.9000e-10    7.500e-01   -9.205e-06  
  5.0000e-10    7.500e-01   -1.097e-05  
  5.1000e-10    7.500e-01   -1.274e-05  
  5.2000e-10    7.500e-01   -1.415e-05  
  5.3000e-10    7.500e-01   -1.240e-05  
  5.4000e-10    7.500e-01   -1.064e-05  
  5.5000e-10    7.500e-01   -8.886e-06  
  5.6000e-10    7.500e-01   -7.131e-06  
  5.7000e-10    7.500e-01   -5.375e-06  
  5.8000e-10    7.500e-01   -3.620e-06  
  5.9000e-10    7.500e-01   -1.864e-06  
  6.0000e-10    7.500e-01    0.000e+00  
  6.1000e-10    7.500e-01    1.647e-06  
  6.2000e-10    7.500e-01    3.402e-06  
  6.3000e-10    7.500e-01    5.158e-06  
  6.4000e-10    7.500e-01    6.913e-06  
  6.5000e-10    7.500e-01    8.669e-06  
  6.6000e-10    7.500e-01    1.042e-05  
  6.7000e-10    7.500e-01    1.218e-05  
  6.8000e-10    7.500e-01    1.394e-05  
  6.9000e-10    7.500e-01    1.569e-05  
  7.0000e-10    7.500e-01    1.745e-05  
  7.1000e-10    7.500e-01    1.920e-05  
  7.2000e-10    7.500e-01    2.061e-05  
  7.3000e-10    7.500e-01    1.886e-05  
  7.4000e-10    7.500e-01    1.712e-05  
  7.5000e-10    7.500e-01    1.537e-05  
  7.6000e-10    7.500e-01    1.363e-05  
  7.7000e-10    7.500e-01    1.188e-05  
  7.8000e-10    7.500e-01    1.014e-05  
  7.9000e-10    7.500e-01    8.393e-06  
  8.0000e-10    7.500e-01    6.648e-06  
  8.1000e-10    7.500e-01    4.903e-06  
  8.2000e-10    7.500e-01    3.158e-06  
  8.3000e-10    7.500e-01    1.413e-06  
  8.4000e-10    7.500e-01    0.000e+00  
  8.5000e-10    7.500e-01   -2.077e-06  
  8.6000e-10    7.500e-01   -3.822e-06  
  8.7000e-10    7.500e-01   -5.567e-06  
  8.8000e-10    7.500e-01   -7.312e-06  
  8.9000e-10    7.500e-01   -9.058e-06  
  9.0000e-10    7.500e-01   -1.080e-05  
  9.1000e-10    7.500e-01   -1.255e-05  
  9.2000e-10    7.500e-01   -1.386e-05  
  9.3000e-10    7.500e-01   -1.121e-05  
  9.4000e-10    7.500e-01   -8.566e-06  
  9.5000e-10    7.500e-01   -5.922e-06  
  9.6000e-10    7.500e-01   -3.278e-06  
  9.7000e-10    7.500e-01   -6.331e-07  
  9.8000e-10    7.500e-01    2.011e-06  
  9.9000e-10    7.500e-01    4.656e-06  
  1.0000e-09    7.500e-01    7.300e-06  
  1.0100e-09    7.500e-01    9.945e-06  
  1.0200e-09    7.500e-01    1.259e-05  
  1.0300e-09    7.500e-01    1.523e-05  
  1.0400e-09    7.500e-01    1.788e-05  
  1.0500e-09    7.500e-01    2.052e-05  
  1.0600e-09    7.532e-01    1.459e-06  
  1.0700e-09    6.480e-01   -2.277e-03  
  1.0800e-09    4.392e-01    1.050e-01  
  1.0900e-09    3.079e-02    6.703e-01  
  1.1000e-09    2.208e-03    7.502e-01  
  1.1100e-09    5.499e-06    7.500e-01  
  1.1200e-09    2.762e-06    7.500e-01  
  1.1300e-09    2.912e-06    7.500e-01  
  1.1400e-09    3.183e-06    7.500e-01  
  1.1500e-09    3.472e-06    7.500e-01  
  1.1600e-09    3.760e-06    7.500e-01  
  1.1700e-09    4.010e-06    7.500e-01  
  1.1800e-09    3.808e-06    7.500e-01  
  1.1900e-09    3.606e-06    7.500e-01  
  1.2000e-09    3.405e-06    7.500e-01  
  1.2100e-09    3.203e-06    7.500e-01  
  1.2200e-09    3.001e-06    7.500e-01  
  1.2300e-09    2.799e-06    7.500e-01  
  1.2400e-09    2.597e-06    7.500e-01  
  1.2500e-09    2.395e-06    7.500e-01  
  1.2600e-09    2.455e-06    7.500e-01  
  1.2700e-09    2.568e-06    7.500e-01  
  1.2800e-09    2.680e-06    7.500e-01  
  1.2900e-09    2.793e-06    7.500e-01  
  1.3000e-09    2.905e-06    7.500e-01  
  1.3100e-09    3.018e-06    7.500e-01  
  1.3200e-09    3.130e-06    7.500e-01  
  1.3300e-09    3.243e-06    7.500e-01  
  1.3400e-09    3.355e-06    7.500e-01  
  1.3500e-09    3.468e-06    7.500e-01  
  1.3600e-09    3.580e-06    7.500e-01  
  1.3700e-09    3.693e-06    7.500e-01  
  1.3800e-09    3.805e-06    7.500e-01  
  1.3900e-09    3.918e-06    7.500e-01  
  1.4000e-09    4.030e-06    7.500e-01  
  1.4100e-09    4.142e-06    7.500e-01  
  1.4200e-09    4.255e-06    7.500e-01  
  1.4300e-09    4.202e-06    7.500e-01  
  1.4400e-09    4.098e-06    7.500e-01  
  1.4500e-09    3.995e-06    7.500e-01  
  1.4600e-09    3.891e-06    7.500e-01  
  1.4700e-09    3.788e-06    7.500e-01  
  1.4800e-09    3.684e-06    7.500e-01  
  1.4900e-09    3.581e-06    7.500e-01  
  1.5000e-09    3.477e-06    7.500e-01  
  1.5100e-09    3.374e-06    7.500e-01  
  1.5200e-09    3.270e-06    7.500e-01  
  1.5300e-09    3.167e-06    7.500e-01  
  1.5400e-09    3.063e-06    7.500e-01  
  1.5500e-09    2.960e-06    7.500e-01  
  1.5600e-09    2.856e-06    7.500e-01  
  1.5700e-09    2.753e-06    7.500e-01  
  1.5800e-09    2.649e-06    7.500e-01  
  1.5900e-09    2.546e-06    7.500e-01  
  1.6000e-09    2.442e-06    7.500e-01  
  1.6100e-09    2.339e-06    7.500e-01  
  1.6200e-09    2.235e-06    7.500e-01  
  1.6300e-09    2.295e-06    7.500e-01  
  1.6400e-09    2.406e-06    7.500e-01  
  1.6500e-09    2.516e-06    7.500e-01  
  1.6600e-09    2.627e-06    7.500e-01  
  1.6700e-09    2.737e-06    7.500e-01  
  1.6800e-09    2.847e-06    7.500e-01  
  1.6900e-09    2.958e-06    7.500e-01  
  1.7000e-09    3.068e-06    7.500e-01  
  1.7100e-09    3.179e-06    7.500e-01  
  1.7200e-09    3.289e-06    7.500e-01  
  1.7300e-09    3.399e-06    7.500e-01  
  1.7400e-09    3.510e-06    7.500e-01  
  1.7500e-09    3.620e-06    7.500e-01  
  1.7600e-09    3.730e-06    7.500e-01  
  1.7700e-09    3.841e-06    7.500e-01  
  1.7800e-09    3.951e-06    7.500e-01  
  1.7900e-09    4.062e-06    7.500e-01  
  1.8000e-09    4.172e-06    7.500e-01  
  1.8100e-09    4.282e-06    7.500e-01  
  1.8200e-09    4.393e-06    7.500e-01  
  1.8300e-09    4.317e-06    7.500e-01  
  1.8400e-09    4.185e-06    7.500e-01  
  1.8500e-09    4.052e-06    7.500e-01  
  1.8600e-09    3.920e-06    7.500e-01  
  1.8700e-09    3.788e-06    7.500e-01  
  1.8800e-09    3.655e-06    7.500e-01  
  1.8900e-09    3.523e-06    7.500e-01  
  1.9000e-09    3.391e-06    7.500e-01  
  1.9100e-09    3.258e-06    7.500e-01  
  1.9200e-09    3.126e-06    7.500e-01  
  1.9300e-09    2.994e-06    7.500e-01  
  1.9400e-09    2.861e-06    7.500e-01  
  1.9500e-09    2.729e-06    7.500e-01  
  1.9600e-09    2.597e-06    7.500e-01  
  1.9700e-09    2.464e-06    7.500e-01  
  1.9800e-09    2.332e-06    7.500e-01  
  1.9900e-09    2.200e-06    7.500e-01  
  2.0000e-09    2.067e-06    7.500e-01  
  2.0100e-09   -2.500e-03    7.500e-01  
  2.0200e-09    9.235e-02    7.498e-01  
  2.0300e-09    3.509e-01    6.962e-01  
  2.0400e-09    6.960e-01    9.026e-02  
  2.0500e-09    7.550e-01    2.097e-01  
  2.0600e-09    2.171e+00   -8.411e-01  
  2.0700e-09    7.622e-01   -5.556e-01  
  2.0800e-09    7.674e-01    3.421e-01  
  2.0900e-09    7.601e-01    9.223e-01  
  2.1000e-09    7.413e-01    7.620e-01  
  2.1100e-09    7.409e-01    2.118e-01  
  2.1200e-09    7.246e-01   -7.901e-01  
  2.1300e-09    1.212e+00   -1.620e+00  
  2.1400e-09    2.131e+00   -1.556e+00  
  2.1500e-09    2.605e+00   -1.290e+00  
  2.1600e-09    2.649e+00   -9.263e-01  
  2.1700e-09    2.633e+00   -3.777e-01  
  2.1800e-09    2.548e+00    3.215e-01  
  2.1900e-09    2.970e+00    1.468e-01  
  2.2000e-09    3.065e+00   -8.188e-01  
  2.2100e-09    2.249e+00   -1.606e+00  
  2.2200e-09    1.380e+00   -2.212e+00  
  2.2300e-09    5.798e-01   -2.377e+00  
  2.2400e-09    2.176e-01   -2.156e+00  
  2.2500e-09    2.829e-01   -1.770e+00  
  2.2600e-09    7.551e-01   -1.258e+00  
  2.2700e-09    1.921e+00   -1.339e+00  
  2.2800e-09    2.461e+00   -1.952e+00  
  2.2900e-09    1.961e+00   -2.394e+00  
  2.3000e-09    1.473e+00   -2.501e+00  
  2.3100e-09    9.543e-01   -2.302e+00  
  2.3200e-09    3.970e-01   -1.997e+00  
  2.3300e-09    6.845e-01   -1.530e+00  
  2.3400e-09    2.101e+00   -1.032e+00  
  2.3500e-09    3.111e+00   -4.260e-01  
  2.3600e-09    2.662e+00   -1.040e+00  
  2.3700e-09    2.013e+00   -1.992e+00  
  2.3800e-09    2.006e+00   -1.611e+00  
  2.3900e-09    2.016e+00   -9.904e-01  
  2.4000e-09    1.935e+00   -2.936e-01  
  2.4100e-09    1.344e+00    2.199e-02  
  2.4200e-09    7.784e-01   -1.293e-01  
  2.4300e-09    7.495e-01   -2.506e-01  
  2.4400e-09    7.521e-01   -1.575e-01  
  2.4500e-09    1.558e+00    3.748e-01  
  2.4600e-09    2.763e+00    4.709e-01  
  2.4700e-09    3.081e+00   -1.328e-01  
  2.4800e-09    2.873e+00   -7.293e-01  
  2.4900e-09    2.612e+00   -1.253e+00  
  2.5000e-09    2.378e+00   -1.579e+00  
  2.5100e-09    2.130e+00   -1.719e+00  
  2.5200e-09    1.767e+00   -1.767e+00  
  2.5300e-09    1.223e+00   -1.752e+00  
  2.5400e-09    8.252e-01   -1.443e+00  
  2.5500e-09    1.760e+00   -1.291e+00  
  2.5600e-09    2.742e+00   -1.444e+00  
  2.5700e-09    2.503e+00   -1.175e+00  
  2.5800e-09    1.998e+00   -6.010e-01  
  2.5900e-09    9.025e-01   -7.767e-02  
  2.6000e-09    2.875e+00   -8.303e-01  
  2.6100e-09    3.103e+00   -1.527e-01  
  2.6200e-09    2.919e+00   -9.666e-03  
  2.6300e-09    2.513e+00    4.843e-02  
  2.6400e-09    1.809e+00   -2.588e-01  
  2.6500e-09    1.128e+00   -1.044e+00  
  2.6600e-09    1.641e+00   -1.316e+00  
  2.6700e-09    2.117e+00   -1.477e+00  
  2.6800e-09    2.438e+00   -1.593e+00  
  2.6900e-09    2.425e+00   -1.643e+00  
  2.7000e-09    2.314e+00   -1.605e+00  
  2.7100e-09    2.071e+00   -1.247e+00  
  2.7200e-09    1.962e+00   -5.621e-02  
  2.7300e-09    8.139e-01   -4.358e-02  
  2.7400e-09    7.475e-01   -9.623e-02  
  2.7500e-09    7.335e-01   -9.134e-01  
  2.7600e-09    9.382e-01   -1.402e+00  
  2.7700e-09    1.286e+00   -1.550e+00  
  2.7800e-09    1.546e+00   -1.654e+00  
  2.7900e-09    1.634e+00   -1.637e+00  
  2.8000e-09    1.501e+00   -1.672e+00  
  2.8100e-09    1.556e+00   -1.074e+00  
  2.8200e-09    1.751e+00   -4.332e-02  
  2.8300e-09    9.949e-01   -1.444e-02  
  2.8400e-09    1.748e+00   -1.873e+00  
  2.8500e-09    2.193e+00   -2.549e+00  
  2.8600e-09    2.075e+00   -2.543e+00  
  2.8700e-09    1.792e+00   -2.360e+00  
  2.8800e-09    1.437e+00   -1.962e+00  
  2.8900e-09    1.060e+00   -1.399e+00  
  2.9000e-09    2.048e+00   -1.642e+00  
  2.9100e-09    2.274e+00   -2.070e+00  
  2.9200e-09    2.036e+00   -2.383e+00  
  2.9300e-09    1.756e+00   -2.457e+00  
  2.9400e-09    1.411e+00   -2.381e+00  
  2.9500e-09    9.565e-01   -2.144e+00  
  2.9600e-09    4.965e-01   -1.765e+00  
  2.9700e-09    2.207e+00   -1.239e+00  
  2.9800e-09    3.094e+00   -3.057e-01  
  2.9900e-09    2.767e+00   -4.496e-01  
  3.0000e-09    2.076e+00   -9.352e-01  
  3.0100e-09    1.337e+00   -1.200e+00  
  3.0200e-09    1.413e+00   -1.250e+00  
  3.0300e-09    1.673e+00   -1.212e+00  
  3.0400e-09    1.818e+00   -1.105e+00  
  3.0500e-09    1.768e+00   -9.181e-01  
  3.0600e-09    1.461e+00   -6.196e-01  
  3.0700e-09    1.063e+00   -2.507e-01  
  3.0800e-09    5.243e-01    2.208e-01  
  3.0900e-09   -6.840e-01    5.889e-01  
  3.1000e-09   -2.236e+00    1.282e+00  
  3.1100e-09   -1.050e+00    2.058e+00  
  3.1200e-09   -6.099e-01    1.974e+00  
  3.1300e-09   -4.715e-01    1.838e+00  
  3.1400e-09   -2.010e-01    1.630e+00  
  3.1500e-09   -8.247e-01    1.501e+00  
  3.1600e-09   -1.903e+00    1.507e+00  
  3.1700e-09   -2.024e+00    1.799e+00  
  3.1800e-09   -1.842e+00    1.990e+00  
  3.1900e-09   -1.724e+00    1.806e+00  
  3.2000e-09   -1.453e+00    1.573e+00  
  3.2100e-09   -1.046e+00    1.266e+00  
  3.2200e-09   -4.491e-01    9.409e-01  
  3.2300e-09   -7.555e-01    2.262e+00  
  3.2400e-09   -1.917e+00    2.900e+00  
  3.2500e-09   -2.197e+00    2.015e+00  
  3.2600e-09   -1.731e+00    1.863e+00  
  3.2700e-09   -1.181e+00    1.648e+00  
  3.2800e-09   -7.902e-01    1.444e+00  
  3.2900e-09   -4.339e-01    7.151e-02  
  3.3000e-09    4.844e-01   -2.522e+00  
  3.3100e-09    1.283e+00   -3.927e+00  
  3.3200e-09    1.240e+00   -3.891e+00  
  3.3300e-09    9.566e-01   -3.479e+00  
  3.3400e-09    9.925e-01   -2.550e+00  
  3.3500e-09    1.428e+00   -8.880e-01  
  3.3600e-09    9.821e-01    3.214e-01  
  3.3700e-09   -8.566e-01    6.193e-01  
  3.3800e-09   -2.237e+00    7.176e-01  
  3.3900e-09   -2.494e+00    7.266e-01  
  3.4000e-09   -2.359e+00    7.404e-01  
  3.4100e-09   -2.090e+00    7.382e-01  
  3.4200e-09   -1.906e+00    3.866e-01  
  3.4300e-09   -1.292e+00    9.375e-01  
  3.4400e-09   -4.412e-01    1.941e+00  
  3.4500e-09   -4.006e-01    2.122e+00  
  3.4600e-09   -7.726e-01    2.236e+00  
  3.4700e-09   -9.664e-01    2.375e+00  
  3.4800e-09   -1.664e+00    1.306e+00  
  3.4900e-09   -3.068e+00   -1.946e+00  
  3.5000e-09   -3.752e+00   -3.976e+00  
  3.5100e-09   -3.499e+00   -3.693e+00  
  3.5200e-09   -2.923e+00   -2.812e+00  
  3.5300e-09   -2.941e+00   -1.175e+00  
  3.5400e-09   -3.189e+00   -2.511e-01  
  3.5500e-09   -2.755e+00   -3.468e-01  
  3.5600e-09   -2.080e+00   -3.798e-01  
  3.5700e-09   -8.710e-01    9.569e-02  
  3.5800e-09   -3.209e-02    5.234e-01  
  3.5900e-09   -1.504e+00    1.238e+00  
  3.6000e-09   -2.426e+00    2.084e+00  
  3.6100e-09   -1.869e+00    2.226e+00  
  3.6200e-09   -1.767e+00    2.428e+00  
  3.6300e-09   -1.592e+00    2.396e+00  
  3.6400e-09   -1.442e+00    1.944e+00  
  3.6500e-09   -1.241e+00    1.231e+00  
  3.6600e-09   -5.609e-01    8.094e-01  
  3.6700e-09   -1.294e+00    8.252e-01  
  3.6800e-09   -2.505e+00    8.598e-01  
  3.6900e-09   -2.205e+00    1.051e+00  
  3.7000e-09   -1.763e+00    1.345e+00  
  3.7100e-09   -1.229e+00    1.566e+00  
  3.7200e-09   -5.983e-01    1.721e+00  
  3.7300e-09   -1.000e+00    1.837e+00  
  3.7400e-09   -1.846e+00    1.889e+00  
  3.7500e-09   -1.925e+00    1.976e+00  
  3.7600e-09   -1.862e+00    1.617e+00  
  3.7700e-09   -1.645e+00    7.918e-01  
  3.7800e-09   -1.055e+00    7.353e-01  
  3.7900e-09   -5.411e-01    6.873e-01  
  3.8000e-09   -2.830e-01    6.955e-01  
  3.8100e-09   -1.210e+00    9.254e-01  
  3.8200e-09   -1.893e+00    1.268e+00  
  3.8300e-09   -2.160e+00    1.552e+00  
  3.8400e-09   -1.990e+00    1.785e+00  
  3.8500e-09   -1.742e+00    1.951e+00  
  3.8600e-09   -1.328e+00    2.061e+00  
  3.8700e-09   -9.600e-01    1.981e+00  
  3.8800e-09   -1.420e+00    1.344e+00  
  3.8900e-09   -2.185e+00    1.367e+00  
  3.9000e-09   -2.088e+00    1.537e+00  
  3.9100e-09   -1.901e+00    1.660e+00  
  3.9200e-09   -1.576e+00    1.694e+00  
  3.9300e-09   -1.122e+00    1.652e+00  
  3.9400e-09   -5.702e-01    1.560e+00  
  3.9500e-09   -6.813e-01    9.959e-01  
  3.9600e-09   -2.591e+00   -9.030e-02  
  3.9700e-09   -2.322e+00    1.113e+00  
  3.9800e-09   -1.680e+00    2.294e+00  
  3.9900e-09   -1.214e+00    2.826e+00  
  4.0000e-09   -6.765e-01    3.045e+00  
y
x

        time    voltage      voltage    
                 outin_10     outin_20  
  0.0000e+00    7.500e-01    3.281e-06  
  1.0000e-11    7.500e-01    5.237e-06  
  2.0000e-11    7.508e-01    2.349e-05  
  3.0000e-11    7.549e-01   -8.497e-05  
  4.0000e-11    5.013e-02    4.610e-01  
  5.0000e-11    3.830e-04    7.508e-01  
  6.0000e-11    2.451e-05    7.500e-01  
  7.0000e-11   -1.516e-05    7.500e-01  
  8.0000e-11   -2.799e-06    7.500e-01  
  9.0000e-11    9.558e-06    7.500e-01  
  1.0000e-10    2.128e-05    7.500e-01  
  1.1000e-10    1.571e-05    7.500e-01  
  1.2000e-10    1.013e-05    7.500e-01  
  1.3000e-10    4.564e-06    7.500e-01  
  1.4000e-10   -1.007e-06    7.500e-01  
  1.5000e-10   -6.578e-06    7.500e-01  
  1.6000e-10   -1.215e-05    7.500e-01  
  1.7000e-10   -1.327e-05    7.500e-01  
  1.8000e-10   -1.097e-05    7.500e-01  
  1.9000e-10   -8.674e-06    7.500e-01  
[...]
  3.6400e-09    3.281e-06    7.500e-01  
  3.6500e-09    3.281e-06    7.500e-01  
  3.6600e-09    3.281e-06    7.500e-01  
  3.6700e-09    3.281e-06    7.500e-01  
  3.6800e-09    3.281e-06    7.500e-01  
  3.6900e-09    3.281e-06    7.500e-01  
  3.7000e-09    3.281e-06    7.500e-01  
  3.7100e-09    3.281e-06    7.500e-01  
  3.7200e-09    3.281e-06    7.500e-01  
  3.7300e-09    3.281e-06    7.500e-01  
  3.7400e-09    3.281e-06    7.500e-01  
  3.7500e-09    3.281e-06    7.500e-01  
  3.7600e-09    3.281e-06    7.500e-01  
  3.7700e-09    3.281e-06    7.500e-01  
  3.7800e-09    3.281e-06    7.500e-01  
  3.7900e-09    3.281e-06    7.500e-01  
  3.8000e-09    3.281e-06    7.500e-01  
  3.8100e-09    3.281e-06    7.500e-01  
  3.8200e-09    3.281e-06    7.500e-01  
  3.8300e-09    3.281e-06    7.500e-01  
  3.8400e-09    3.281e-06    7.500e-01  
  3.8500e-09    3.281e-06    7.500e-01  
  3.8600e-09    3.281e-06    7.500e-01  
  3.8700e-09    3.281e-06    7.500e-01  
  3.8800e-09    3.281e-06    7.500e-01  
  3.8900e-09    3.281e-06    7.500e-01  
  3.9000e-09    3.281e-06    7.500e-01  
  3.9100e-09    3.281e-06    7.500e-01  
  3.9200e-09    3.281e-06    7.500e-01  
  3.9300e-09    3.281e-06    7.500e-01  
  3.9400e-09    3.281e-06    7.500e-01  
  3.9500e-09    3.281e-06    7.500e-01  
  3.9600e-09    3.281e-06    7.500e-01  
  3.9700e-09    3.281e-06    7.500e-01  
  3.9800e-09    3.281e-06    7.500e-01  
  3.9900e-09    3.281e-06    7.500e-01  
  4.0000e-09    3.281e-06    7.500e-01  
y
x

        time    voltage      voltage    
                 outin_11     outin_21  
  0.0000e+00    7.500e-01    3.281e-06  
  1.0000e-11    7.500e-01    5.237e-06  
  2.0000e-11    7.508e-01    2.349e-05  
  3.0000e-11    7.549e-01   -8.497e-05  
  4.0000e-11    5.013e-02    4.610e-01  
  5.0000e-11    3.830e-04    7.508e-01  
  6.0000e-11    2.451e-05    7.500e-01  
  7.0000e-11   -1.516e-05    7.500e-01  
  8.0000e-11   -2.799e-06    7.500e-01  
  9.0000e-11    9.558e-06    7.500e-01  
  1.0000e-10    2.128e-05    7.500e-01  
  1.1000e-10    1.571e-05    7.500e-01  
  1.2000e-10    1.013e-05    7.500e-01  
  1.3000e-10    4.564e-06    7.500e-01  
  1.4000e-10   -1.007e-06    7.500e-01  
  1.5000e-10   -6.578e-06    7.500e-01  
  1.6000e-10   -1.215e-05    7.500e-01  
  1.7000e-10   -1.327e-05    7.500e-01  
  1.8000e-10   -1.097e-05    7.500e-01  
  1.9000e-10   -8.674e-06    7.500e-01  
  2.0000e-10   -6.374e-06    7.500e-01  
  2.1000e-10   -4.074e-06    7.500e-01  
  2.2000e-10   -1.774e-06    7.500e-01  
  2.3000e-10    5.256e-07    7.500e-01  
  2.4000e-10    2.825e-06    7.500e-01  
  2.5000e-10    5.125e-06    7.500e-01  
  2.6000e-10    7.425e-06    7.500e-01  
  2.7000e-10    9.725e-06    7.500e-01  
  2.8000e-10    1.202e-05    7.500e-01  
  2.9000e-10    1.432e-05    7.500e-01  
  3.0000e-10    1.662e-05    7.500e-01  
  3.1000e-10    1.892e-05    7.500e-01  
  3.2000e-10    2.082e-05    7.500e-01  
  3.3000e-10    1.905e-05    7.500e-01  
  3.4000e-10    1.729e-05    7.500e-01  
  3.5000e-10    1.552e-05    7.500e-01  
  3.6000e-10    1.375e-05    7.500e-01  
  3.7000e-10    1.199e-05    7.500e-01  
  3.8000e-10    1.022e-05    7.500e-01  
  3.9000e-10    8.456e-06    7.500e-01  
  4.0000e-10    6.690e-06    7.500e-01  
  4.1000e-10    4.924e-06    7.500e-01  
  4.2000e-10    3.158e-06    7.500e-01  
  4.3000e-10    1.391e-06    7.500e-01  
  4.4000e-10    0.000e+00    7.500e-01  
  4.5000e-10   -2.141e-06    7.500e-01  
  4.6000e-10   -3.907e-06    7.500e-01  
  4.7000e-10   -5.673e-06    7.500e-01  
  4.8000e-10   -7.439e-06    7.500e-01  
  4.9000e-10   -9.205e-06    7.500e-01  
  5.0000e-10   -1.097e-05    7.500e-01  
  5.1000e-10   -1.274e-05    7.500e-01  
  5.2000e-10   -1.415e-05    7.500e-01  
  5.3000e-10   -1.240e-05    7.500e-01  
  5.4000e-10   -1.064e-05    7.500e-01  
  5.5000e-10   -8.886e-06    7.500e-01  
  5.6000e-10   -7.131e-06    7.500e-01  
  5.7000e-10   -5.375e-06    7.500e-01  
  5.8000e-10   -3.620e-06    7.500e-01  
  5.9000e-10   -1.864e-06    7.500e-01  
  6.0000e-10    0.000e+00    7.500e-01  
  6.1000e-10    1.647e-06    7.500e-01  
  6.2000e-10    3.402e-06    7.500e-01  
  6.3000e-10    5.158e-06    7.500e-01  
  6.4000e-10    6.913e-06    7.500e-01  
  6.5000e-10    8.669e-06    7.500e-01  
  6.6000e-10    1.042e-05    7.500e-01  
  6.7000e-10    1.218e-05    7.500e-01  
  6.8000e-10    1.394e-05    7.500e-01  
  6.9000e-10    1.569e-05    7.500e-01  
  7.0000e-10    1.745e-05    7.500e-01  
  7.1000e-10    1.920e-05    7.500e-01  
  7.2000e-10    2.061e-05    7.500e-01  
  7.3000e-10    1.886e-05    7.500e-01  
  7.4000e-10    1.712e-05    7.500e-01  
  7.5000e-10    1.537e-05    7.500e-01  
  7.6000e-10    1.363e-05    7.500e-01  
  7.7000e-10    1.188e-05    7.500e-01  
  7.8000e-10    1.014e-05    7.500e-01  
  7.9000e-10    8.393e-06    7.500e-01  
  8.0000e-10    6.648e-06    7.500e-01  
  8.1000e-10    4.903e-06    7.500e-01  
  8.2000e-10    3.158e-06    7.500e-01  
  8.3000e-10    1.413e-06    7.500e-01  
  8.4000e-10    0.000e+00    7.500e-01  
  8.5000e-10   -2.077e-06    7.500e-01  
  8.6000e-10   -3.822e-06    7.500e-01  
  8.7000e-10   -5.567e-06    7.500e-01  
  8.8000e-10   -7.312e-06    7.500e-01  
  8.9000e-10   -9.058e-06    7.500e-01  
  9.0000e-10   -1.080e-05    7.500e-01  
  9.1000e-10   -1.255e-05    7.500e-01  
  9.2000e-10   -1.386e-05    7.500e-01  
  9.3000e-10   -1.121e-05    7.500e-01  
  9.4000e-10   -8.566e-06    7.500e-01  
  9.5000e-10   -5.922e-06    7.500e-01  
  9.6000e-10   -3.278e-06    7.500e-01  
  9.7000e-10   -6.331e-07    7.500e-01  
  9.8000e-10    2.011e-06    7.500e-01  
  9.9000e-10    4.656e-06    7.500e-01  
  1.0000e-09    7.300e-06    7.500e-01  
  1.0100e-09    9.945e-06    7.500e-01  
  1.0200e-09    1.259e-05    7.500e-01  
  1.0300e-09    1.523e-05    7.500e-01  
  1.0400e-09    1.788e-05    7.500e-01  
  1.0500e-09    2.052e-05    7.500e-01  
  1.0600e-09    3.043e-06    7.500e-01  
  1.0700e-09    3.349e-06    7.500e-01  
  1.0800e-09    3.431e-06    7.500e-01  
  1.0900e-09    3.538e-06    7.500e-01  
  1.1000e-09    3.331e-06    7.500e-01  
  1.1100e-09    3.281e-06    7.500e-01  
  1.1200e-09    3.281e-06    7.500e-01  
  1.1300e-09    3.280e-06    7.500e-01  
  1.1400e-09    3.281e-06    7.500e-01  
  1.1500e-09    3.281e-06    7.500e-01  
  1.1600e-09    3.282e-06    7.500e-01  
  1.1700e-09    3.282e-06    7.500e-01  
  1.1800e-09    3.282e-06    7.500e-01  
  1.1900e-09    3.282e-06    7.500e-01  
  1.2000e-09    3.281e-06    7.500e-01  
  1.2100e-09    3.281e-06    7.500e-01  
  1.2200e-09    3.281e-06    7.500e-01  
  1.2300e-09    3.281e-06    7.500e-01  
  1.2400e-09    3.280e-06    7.500e-01  
  1.2500e-09    3.280e-06    7.500e-01  
  1.2600e-09    3.280e-06    7.500e-01  
  1.2700e-09    3.280e-06    7.500e-01  
  1.2800e-09    3.280e-06    7.500e-01  
  1.2900e-09    3.281e-06    7.500e-01  
  1.3000e-09    3.281e-06    7.500e-01  
  1.3100e-09    3.281e-06    7.500e-01  
  1.3200e-09    3.281e-06    7.500e-01  
  1.3300e-09    3.281e-06    7.500e-01  
  1.3400e-09    3.281e-06    7.500e-01  
  1.3500e-09    3.281e-06    7.500e-01  
  1.3600e-09    3.281e-06    7.500e-01  
  1.3700e-09    3.281e-06    7.500e-01  
  1.3800e-09    3.282e-06    7.500e-01  
  1.3900e-09    3.282e-06    7.500e-01  
  1.4000e-09    3.282e-06    7.500e-01  
  1.4100e-09    3.282e-06    7.500e-01  
  1.4200e-09    3.282e-06    7.500e-01  
  1.4300e-09    3.282e-06    7.500e-01  
  1.4400e-09    3.282e-06    7.500e-01  
  1.4500e-09    3.282e-06    7.500e-01  
  1.4600e-09    3.282e-06    7.500e-01  
  1.4700e-09    3.282e-06    7.500e-01  
  1.4800e-09    3.281e-06    7.500e-01  
  1.4900e-09    3.281e-06    7.500e-01  
  1.5000e-09    3.281e-06    7.500e-01  
  1.5100e-09    3.281e-06    7.500e-01  
  1.5200e-09    3.281e-06    7.500e-01  
  1.5300e-09    3.281e-06    7.500e-01  
  1.5400e-09    3.281e-06    7.500e-01  
  1.5500e-09    3.281e-06    7.500e-01  
  1.5600e-09    3.281e-06    7.500e-01  
  1.5700e-09    3.281e-06    7.500e-01  
  1.5800e-09    3.280e-06    7.500e-01  
  1.5900e-09    3.280e-06    7.500e-01  
  1.6000e-09    3.280e-06    7.500e-01  
  1.6100e-09    3.280e-06    7.500e-01  
  1.6200e-09    3.280e-06    7.500e-01  
  1.6300e-09    3.280e-06    7.500e-01  
  1.6400e-09    3.280e-06    7.500e-01  
  1.6500e-09    3.280e-06    7.500e-01  
  1.6600e-09    3.280e-06    7.500e-01  
  1.6700e-09    3.281e-06    7.500e-01  
  1.6800e-09    3.281e-06    7.500e-01  
  1.6900e-09    3.281e-06    7.500e-01  
  1.7000e-09    3.281e-06    7.500e-01  
  1.7100e-09    3.281e-06    7.500e-01  
  1.7200e-09    3.281e-06    7.500e-01  
  1.7300e-09    3.281e-06    7.500e-01  
  1.7400e-09    3.281e-06    7.500e-01  
  1.7500e-09    3.281e-06    7.500e-01  
  1.7600e-09    3.281e-06    7.500e-01  
  1.7700e-09    3.282e-06    7.500e-01  
  1.7800e-09    3.282e-06    7.500e-01  
  1.7900e-09    3.282e-06    7.500e-01  
  1.8000e-09    3.282e-06    7.500e-01  
  1.8100e-09    3.282e-06    7.500e-01  
  1.8200e-09    3.282e-06    7.500e-01  
  1.8300e-09    3.282e-06    7.500e-01  
  1.8400e-09    3.282e-06    7.500e-01  
  1.8500e-09    3.282e-06    7.500e-01  
  1.8600e-09    3.282e-06    7.500e-01  
  1.8700e-09    3.282e-06    7.500e-01  
  1.8800e-09    3.281e-06    7.500e-01  
  1.8900e-09    3.281e-06    7.500e-01  
  1.9000e-09    3.281e-06    7.500e-01  
  1.9100e-09    3.281e-06    7.500e-01  
  1.9200e-09    3.281e-06    7.500e-01  
  1.9300e-09    3.281e-06    7.500e-01  
  1.9400e-09    3.281e-06    7.500e-01  
  1.9500e-09    3.281e-06    7.500e-01  
  1.9600e-09    3.281e-06    7.500e-01  
  1.9700e-09    3.280e-06    7.500e-01  
  1.9800e-09    3.280e-06    7.500e-01  
  1.9900e-09    3.280e-06    7.500e-01  
  2.0000e-09    3.280e-06    7.500e-01  
  2.0100e-09    3.281e-06    7.500e-01  
  2.0200e-09    3.281e-06    7.500e-01  
  2.0300e-09    3.281e-06    7.500e-01  
  2.0400e-09    3.281e-06    7.500e-01  
  2.0500e-09    3.281e-06    7.500e-01  
  2.0600e-09    6.527e-06    7.500e-01  
  2.0700e-09   -8.122e-04    7.500e-01  
  2.0800e-09    1.885e-01    5.580e-01  
  2.0900e-09    3.868e-01   -8.595e-01  
  2.1000e-09    6.370e-01   -2.374e+00  
  2.1100e-09    1.971e+00   -2.628e+00  
  2.1200e-09    1.954e+00   -2.429e+00  
  2.1300e-09    1.900e+00   -2.108e+00  
  2.1400e-09    1.805e+00   -1.667e+00  
  2.1500e-09    1.627e+00   -1.111e+00  
  2.1600e-09    1.157e+00   -4.279e-01  
  2.1700e-09   -1.371e-01   -1.426e+00  
  2.1800e-09   -1.686e+00   -2.644e+00  
  2.1900e-09   -3.099e+00   -2.258e+00  
  2.2000e-09   -3.731e+00   -1.723e+00  
  2.2100e-09   -3.296e+00   -1.049e+00  
  2.2200e-09   -2.555e+00    8.304e-04  
  2.2300e-09   -1.180e+00    2.030e+00  
  2.2400e-09   -1.514e-01    3.338e+00  
  2.2500e-09    1.750e-01    3.186e+00  
  2.2600e-09    5.271e-01    2.909e+00  
  2.2700e-09    3.038e-01    2.555e+00  
  2.2800e-09   -1.595e+00    2.102e+00  
  2.2900e-09   -2.913e+00    2.631e+00  
  2.3000e-09   -2.014e+00    3.305e+00  
  2.3100e-09   -4.215e-01    3.042e+00  
  2.3200e-09    1.682e+00    2.688e+00  
  2.3300e-09    3.504e+00    2.179e+00  
  2.3400e-09    3.735e+00    9.754e-01  
  2.3500e-09    2.573e+00   -1.406e+00  
  2.3600e-09    1.858e+00   -2.748e+00  
  2.3700e-09    1.967e+00   -2.430e+00  
  2.3800e-09    2.025e+00   -2.022e+00  
  2.3900e-09    2.028e+00   -1.507e+00  
  2.4000e-09    2.067e+00   -6.373e-01  
  2.4100e-09    2.714e+00   -1.705e-02  
  2.4200e-09    3.285e+00    7.955e-03  
  2.4300e-09    3.208e+00   -1.303e-03  
  2.4400e-09    3.038e+00   -3.052e-03  
  2.4500e-09    2.758e+00   -4.910e-03  
  2.4600e-09    2.337e+00   -7.206e-03  
  2.4700e-09    1.753e+00   -9.795e-03  
  2.4800e-09    1.106e+00   -1.116e-02  
  2.4900e-09    1.432e+00   -1.164e+00  
  2.5000e-09    2.064e+00   -2.455e+00  
  2.5100e-09    1.992e+00   -2.554e+00  
  2.5200e-09    1.838e+00   -2.389e+00  
  2.5300e-09    1.620e+00   -2.062e+00  
  2.5400e-09    1.347e+00   -1.551e+00  
  2.5500e-09    9.968e-01   -6.552e-01  
  2.5600e-09   -3.776e-01    2.150e+00  
  2.5700e-09   -2.155e+00    1.864e+00  
  2.5800e-09   -4.079e+00   -2.611e+00  
  2.5900e-09   -3.530e+00   -2.277e+00  
  2.6000e-09   -5.989e-01   -1.402e+00  
  2.6100e-09    1.977e+00   -2.596e+00  
  2.6200e-09    1.982e+00   -2.481e+00  
  2.6300e-09    1.921e+00   -2.200e+00  
  2.6400e-09    1.821e+00   -1.799e+00  
  2.6500e-09    1.673e+00   -1.315e+00  
  2.6600e-09    1.387e+00   -6.939e-01  
  2.6700e-09    1.027e+00   -2.253e-01  
  2.6800e-09    1.118e+00   -9.065e-01  
  2.6900e-09    1.237e+00   -1.454e+00  
  2.7000e-09    1.250e+00   -1.856e+00  
  2.7100e-09    1.126e+00   -1.943e+00  
  2.7200e-09    6.824e-01   -1.233e+00  
  2.7300e-09    7.600e-01   -7.522e-02  
  2.7400e-09   -1.164e+00   -2.790e+00  
  2.7500e-09   -2.842e+00   -2.506e+00  
  2.7600e-09   -4.236e+00   -2.140e+00  
  2.7700e-09   -3.745e+00   -1.663e+00  
  2.7800e-09   -3.190e+00   -1.113e+00  
  2.7900e-09   -1.810e+00    6.785e-01  
  2.8000e-09    3.358e-01    3.336e+00  
  2.8100e-09    7.181e-01    3.192e+00  
  2.8200e-09    5.190e+00    2.970e+00  
  2.8300e-09    2.750e+00    2.057e+00  
  2.8400e-09    2.530e+00    5.019e-01  
  2.8500e-09    1.966e+00   -2.271e+00  
  2.8600e-09    1.935e+00   -2.781e+00  
  2.8700e-09    2.043e+00   -2.353e+00  
  2.8800e-09    2.033e+00   -1.736e+00  
  2.8900e-09    1.918e+00   -1.000e+00  
  2.9000e-09    1.746e+00   -2.306e-01  
  2.9100e-09    6.877e-01   -2.742e+00  
  2.9200e-09    1.531e+00   -2.871e+00  
  2.9300e-09    2.145e+00   -2.185e+00  
  2.9400e-09    2.402e+00   -1.532e+00  
  2.9500e-09    2.750e+00   -3.800e-01  
  2.9600e-09    2.610e+00   -1.914e-02  
  2.9700e-09    2.151e+00   -8.364e-03  
  2.9800e-09    1.111e+00   -1.715e-02  
  2.9900e-09    1.067e+00   -6.306e-01  
  3.0000e-09    1.340e+00   -1.271e+00  
  3.0100e-09    1.546e+00   -1.755e+00  
  3.0200e-09    1.708e+00   -2.141e+00  
  3.0300e-09    1.815e+00   -2.406e+00  
  3.0400e-09    1.879e+00   -2.470e+00  
  3.0500e-09    1.839e+00   -2.279e+00  
  3.0600e-09    1.693e+00   -1.736e+00  
  3.0700e-09    1.494e+00   -1.093e+00  
  3.0800e-09    1.093e+00   -3.953e-01  
  3.0900e-09    7.625e-01   -1.218e-02  
  3.1000e-09    7.516e-01   -1.202e-03  
  3.1100e-09    7.501e-01   -8.204e-05  
  3.1200e-09    7.500e-01   -2.839e-06  
  3.1300e-09    7.500e-01    2.838e-06  
  3.1400e-09    7.500e-01    3.249e-06  
  3.1500e-09    7.500e-01    3.279e-06  
  3.1600e-09    7.500e-01    3.281e-06  
  3.1700e-09    7.500e-01    3.281e-06  
  3.1800e-09    7.500e-01    3.281e-06  
  3.1900e-09    7.500e-01    3.281e-06  
  3.2000e-09    7.500e-01    3.281e-06  
  3.2100e-09    7.500e-01    3.281e-06  
  3.2200e-09    7.500e-01    3.281e-06  
  3.2300e-09    7.500e-01    3.281e-06  
  3.2400e-09    7.500e-01    3.281e-06  
  3.2500e-09    7.500e-01    3.281e-06  
  3.2600e-09    7.500e-01    3.281e-06  
  3.2700e-09    7.500e-01    3.281e-06  
  3.2800e-09    7.500e-01    3.281e-06  
  3.2900e-09    7.500e-01    3.281e-06  
  3.3000e-09    7.500e-01    3.281e-06  
  3.3100e-09    7.500e-01    3.281e-06  
  3.3200e-09    7.500e-01    3.281e-06  
  3.3300e-09    7.500e-01    3.281e-06  
  3.3400e-09    7.500e-01    3.281e-06  
  3.3500e-09    7.500e-01    3.281e-06  
  3.3600e-09    7.500e-01    3.281e-06  
  3.3700e-09    7.500e-01    3.281e-06  
  3.3800e-09    7.500e-01    3.281e-06  
  3.3900e-09    7.500e-01    3.281e-06  
  3.4000e-09    7.500e-01    3.281e-06  
  3.4100e-09    7.500e-01    3.281e-06  
  3.4200e-09    7.500e-01    3.281e-06  
  3.4300e-09    7.500e-01    3.281e-06  
  3.4400e-09    7.500e-01    3.281e-06  
  3.4500e-09    7.500e-01    3.281e-06  
  3.4600e-09    7.500e-01    3.281e-06  
  3.4700e-09    7.500e-01    3.281e-06  
  3.4800e-09    7.500e-01    3.281e-06  
  3.4900e-09    7.500e-01    3.281e-06  
  3.5000e-09    7.500e-01    3.281e-06  
  3.5100e-09    7.500e-01    3.281e-06  
  3.5200e-09    7.500e-01    3.281e-06  
  3.5300e-09    7.500e-01    3.281e-06  
  3.5400e-09    7.500e-01    3.281e-06  
  3.5500e-09    7.500e-01    3.281e-06  
  3.5600e-09    7.500e-01    3.281e-06  
  3.5700e-09    7.500e-01    3.281e-06  
  3.5800e-09    7.500e-01    3.281e-06  
  3.5900e-09    7.500e-01    3.281e-06  
  3.6000e-09    7.500e-01    3.281e-06  
  3.6100e-09    7.500e-01    3.281e-06  
  3.6200e-09    7.500e-01    3.281e-06  
  3.6300e-09    7.500e-01    3.281e-06  
  3.6400e-09    7.500e-01    3.281e-06  
  3.6500e-09    7.500e-01    3.281e-06  
  3.6600e-09    7.500e-01    3.281e-06  
  3.6700e-09    7.500e-01    3.281e-06  
  3.6800e-09    7.500e-01    3.281e-06  
  3.6900e-09    7.500e-01    3.281e-06  
  3.7000e-09    7.500e-01    3.281e-06  
  3.7100e-09    7.500e-01    3.281e-06  
  3.7200e-09    7.500e-01    3.281e-06  
  3.7300e-09    7.500e-01    3.281e-06  
  3.7400e-09    7.500e-01    3.281e-06  
  3.7500e-09    7.500e-01    3.281e-06  
  3.7600e-09    7.500e-01    3.281e-06  
  3.7700e-09    7.500e-01    3.281e-06  
  3.7800e-09    7.500e-01    3.281e-06  
  3.7900e-09    7.500e-01    3.281e-06  
  3.8000e-09    7.500e-01    3.281e-06  
  3.8100e-09    7.500e-01    3.281e-06  
  3.8200e-09    7.500e-01    3.281e-06  
  3.8300e-09    7.500e-01    3.281e-06  
  3.8400e-09    7.500e-01    3.281e-06  
  3.8500e-09    7.500e-01    3.281e-06  
  3.8600e-09    7.500e-01    3.281e-06  
  3.8700e-09    7.500e-01    3.281e-06  
  3.8800e-09    7.500e-01    3.281e-06  
  3.8900e-09    7.500e-01    3.281e-06  
  3.9000e-09    7.500e-01    3.281e-06  
  3.9100e-09    7.500e-01    3.281e-06  
  3.9200e-09    7.500e-01    3.281e-06  
  3.9300e-09    7.500e-01    3.281e-06  
  3.9400e-09    7.500e-01    3.281e-06  
  3.9500e-09    7.500e-01    3.281e-06  
  3.9600e-09    7.500e-01    3.281e-06  
  3.9700e-09    7.500e-01    3.281e-06  
  3.9800e-09    7.500e-01    3.281e-06  
  3.9900e-09    7.500e-01    3.281e-06  
  4.0000e-09    7.500e-01    3.281e-06  
y

          ***** job concluded
1****** HSPICE -- F-2011.09-SP2 64-BIT (Feb 27 2012) linux ******               
 ******  
 $ netlist of inverter

  ******  job statistics summary tnom=  25.000 temp=  25.000 *****
  
  
 ******  Machine Information  ******
 CPU:
 model name	: Intel(R) Xeon(R) CPU E5-2650 v4 @ 2.20GHz
 cpu MHz	: 2548.218
  
 OS:
 Linux version 3.10.0-693.17.1.el7.x86_64 (mockbuild@x86-041.build.eng.bos.redha
 t.com) (gcc version 4.8.5 20150623 (Red Hat 4.8.5-16) (GCC) ) #1 SMP Sun Jan 14
  10:36:03 EST 2018


  ******  HSPICE Threads Information  ******

  Command Line Threads Count :     1
  Available CPU Count        :    24
  Actual Threads Count       :     1


  ******  Circuit Statistics  ******
  # nodes       =      44 # elements   =      19
  # resistors   =       0 # capacitors =       0 # inductors   =       0
  # mutual_inds =       0 # vccs       =       0 # vcvs        =       0
  # cccs        =       0 # ccvs       =       0 # volt_srcs   =       3
  # curr_srcs   =       0 # diodes     =       0 # bjts        =       0
  # jfets       =       0 # mosfets    =      16 # U elements  =       0
  # T elements  =       0 # W elements =       0 # B elements  =       0
  # S elements  =       0 # P elements =       0 # va device   =       0
  # vector_srcs =       0


  ******  Runtime Statistics (seconds)  ******

  analysis           time    # points   tot. iter  conv.iter
  op point           0.00           1           4
  transient          0.28         401        2400         296 rev=        14
  readin             0.00
  errchk             0.01
  setup              0.00
  output             0.00


           peak memory used        135.46 megabytes
           total cpu time            0.29 seconds
           total elapsed time        0.84 seconds
           job started at     14:56:43 09/15/2020
           job ended   at     14:56:44 09/15/2020


 lic: Release hspice token(s) 
