$DATA1 SOURCE='HSPICE' VERSION='F-2011.09-SP2 64-BIT'
.TITLE '$ netlist of inverter'
 model_uut_peak_power00 model_uut_avg_power012 uut_peak_power    
 uut_avg_power    source_peak_power source_avg_power trf_delay         
 tfr_delay        temper           alter#            
  2.212e-05        4.933e-07        4.639e-05        4.393e-07        
  6.407e-04        1.390e-05        9.509e-12        1.010e-11        
  2.500e+01       1                 
