$DATA1 SOURCE='HSPICE' VERSION='F-2011.09-SP2 64-BIT'
.TITLE '$ netlist of inverter'
 model_uut_peak_power00 model_uut_avg_power00 uut_peak_power    
 uut_avg_power    source_peak_power source_avg_power trf_delay         
 tfr_delay        temper           alter#            
  6.291e-05        3.037e-07        6.291e-05        3.037e-07        
  1.553e-03        1.275e-05        6.406e-12        6.933e-12        
  2.500e+01       1                 
