$DATA1 SOURCE='HSPICE' VERSION='F-2011.09-SP2 64-BIT'
.TITLE '$ netlist of inverter'
 model_uut_peak_power00 model_uut_avg_power00 uut_peak_power    
 uut_avg_power    source_peak_power source_avg_power trf_delay         
 tfr_delay        temper           alter#            
  4.645e-05        2.705e-07        7.413e-05        2.360e-07        
  1.774e-03        1.001e-05        4.241e-12        4.574e-12        
  2.500e+01       1                 
