 ****** HSPICE -- F-2011.09-SP2 64-BIT (Feb 27 2012) linux ******               
  Copyright (C) 2011 Synopsys, Inc. All Rights Reserved.                        
  Unpublished-rights reserved under US copyright laws.
  This program is protected by law and is subject to the
  terms and conditions of the license agreement from Synopsys.
  Use of this program is your acceptance to be bound by the
  license agreement. HSPICE is the trademark of Synopsys, Inc.
  Input File: ptm16lstp.sp                                                      
  Command line options: ptm16lstp.sp
 lic:  
 lic: FLEXlm: v10.8 
 lic: USER:   iliabautista         HOSTNAME: itn3.rc.usf.edu 
 lic: HOSTID:                      PID:      73711 
 lic: Using FLEXlm license file: 
 lic: 27000@license0.rc.usf.edu 
 lic: Checkout 1 hspice 
 lic: License/Maintenance for hspice will expire on 18-jul-2021/2019.06 
 lic: 1(in_use)/50(total) FLOATING license(s) on SERVER license0.rc.usf.edu 
 lic:   
  **warning** (../modelfiles/lstp/16nfet.pm:4) Model nfet device geometries will not be checked against the limits set by lmin, lmax, nfinmin and nfinmax. To enable this check, add a period(.) to the model name(i.e. enable model selector).
1****** HSPICE -- F-2011.09-SP2 64-BIT (Feb 27 2012) linux ******               
 ******  
 $ netlist of inverter

  ******  circuit name directory
 circuit number to circuit name directory
   number circuitname                     definition         multiplier
        0 main circuit
        1 xinput_0.                       inverter           1.00 
        2 xmodel_uut_grid.                model_uut_grid     1.00 
        3 xoutput_00.                     inverter           1.00 
        4 xoutput_01.                     inverter           1.00 
        5 xoutput_02.                     inverter           1.00 
        6 xoutput_03.                     inverter           1.00 
        7 xinput_0.xpfet.                 pfet               1.00 
        8 xinput_0.xnfet.                 nfet               1.00 
        9 xmodel_uut_grid.xinverter00.    inverter           1.00 
       10 xoutput_00.xpfet.               pfet               1.00 
       11 xoutput_00.xnfet.               nfet               1.00 
       12 xoutput_01.xpfet.               pfet               1.00 
       13 xoutput_01.xnfet.               nfet               1.00 
       14 xoutput_02.xpfet.               pfet               1.00 
       15 xoutput_02.xnfet.               nfet               1.00 
       16 xoutput_03.xpfet.               pfet               1.00 
       17 xoutput_03.xnfet.               nfet               1.00 
       18 xmodel_uut_grid.xinverter00.xpfet.
                                            pfet               1.00 
       19 xmodel_uut_grid.xinverter00.xnfet.
                                            nfet               1.00 
1****** HSPICE -- F-2011.09-SP2 64-BIT (Feb 27 2012) linux ******               
 ******  
 $ netlist of inverter

  ******  mos   model parameters tnom=  25.000 temp=  25.000 *****
 Model Name: pfet 
 BSIM-MG BULK Model(Level72)
   VERSION = 105.03  
   DEVTYPE = -1 
   BULKMOD = 1  
   COREMOD = 0 
   GEOMOD = 1 
   RDSMOD = 1 
   IGCMOD = 1 
   IGBMOD = 1 
   GIDLMOD = 0 
   IIMOD = 0 
   NQSMOD = 0 
   SHMOD = 0 
   RGATEMOD = 0 
   RGEOMOD = 1 
   CGEOMOD = 2 
   CAPMOD = 0 
   LINT = -1e-09 m
   LL =      0 m^(LLN+1)
   LLN =      1 
   DLC =      0 m
   DLBIN =      0 
   LLC =      0 m^(LLN+1)
   EOT =  1e-09 m
   TOXP = 1.35e-09 m
   EOTBOX = 1.4e-07 m
   HFIN = 2.6e-08 m
   FECH =      1 
   DELTAW =      0 m
   FECHCV =      1 
   DELTAWCV =      0 m
   NBODY =  1e+23 m^-3
   NSD =  3e+26 m^-3
   PHIG =  4.588 eV
   EPSROX =    3.9 
   EPSRSUB =   11.9 
   EASUB =   4.05 eV
   NI0SUB = 1.1e+16 m^-3
   BG0SUB =   1.12 eV
   NC0SUB = 2.86e+25 m^-3
   NGATE =      0 m^-3
   CIT = 1.3e-05 F/m^2
   CDSC =  0.021 F/m^2
   CDSCD =  0.007 F/m^2
   CDSCDR =  0.007 
   DVT0 =   0.01 
   DVT1 =   0.69 
   PHIN =   0.05 V
   ETA0 = 0.9925 
   ETA0R = 0.9925 
   DSUB =    0.9 
   K1RSCE =      0 V^1/2
   LPE0 =  5e-09 m
   DVTSHIFT =      0 
   QMFACTOR =      0 
   QMTCENIV =      0 
   QMTCENCV =      0 
   AQMTCEN =      0 
   BQMTCEN = 1.2e-08 
   ETAQM =   0.54 
   QM0 = 0.001143 
   PQM =   0.66 
   QM0ACC =  0.001 
   PQMACC =   0.66 
   VSAT = 8.8e+04 
   AVSAT =      0 
   BVSAT =  1e-07 
   VSAT1 = 8.8e+04 
   AVSAT1 =      0 
   BVSAT1 =  1e-07 
   DELTAVSAT =      1 
   KSATIV =    0.8 
   MEXP =      3 
   AMEXP =      0 
   BMEXP =      1 
   PTWG =      0 
   APTWG =      0 
   BPTWG =  1e-07 
   AT = -0.00156 
   TMEXP =      0 
   PTWGT =  0.004 
   U0 =   0.03 
   ETAMOB =      2 
   UP =      0 
   LPA =      1 
   UA =    0.3 
   AUA =      0 
   BUA =  1e-07 
   EU =    1.8 
   AEU =      0 
   BEU =  1e-07 
   UD =      0 
   AUD =      0 
   BUD =  5e-08 
   UCS =      0 
   UTE =      0 
   UTL = -0.0015 
   UA1 = 0.001032 
   UD1 =      0 
   UCSTE = -0.00478 
   RDSWMIN =      0 
   RDSW =    100 
   ARDSW =      0 
   BRDSW =  1e-07 
   RSWMIN =      0 
   RSW =      0 
   ARSW =      0 
   BRSW =  1e-07 
   RDWMIN =      0 
   RDW =      0 
   ARDW =      0 
   BRDW =  1e-07 
   PRWG =      0 
   WR =      1 
   PRT =  0.001 
   PDIBL1 =    1.3 
   PDIBL2 = 0.0002 
   DROUT =   1.06 
   PVAG =      1 
   PCLM =    0.2 
   APCLM =      0 
   BPCLM =  1e-07 
   PCLMG =      0 
   VASAT =    0.6 
   PCLMCV =  0.013 
   PCLMGCV =      0 
   VASATCV =    0.2 
   RGEXT =      0 ohm
   RGFIN =  0.001 ohm
   RSHS =      0 ohm
   RSHD =      0 ohm
   HEPI = 9.5e-09 m
   TSILI =  9e-09 m
   RHOC =  2e-12 ohm/m^2
   RHORSD =      1 ohm/m
   RHOEXT =      1 ohm/m
   CRATIO =    0.5 
   DELTAPRSD =      0 m
   SDTERM = 0 
   LSP =  4e-09 m
   LDG =  3e-09 m
   EPSRSP =    3.9 
   TGATE =  9e-09 m
   TMASK =      0 m
   ASILIEND =      0 m^2
   ARSDEND =      0 m^2
   PRSDEND =      0 m
   NSDE =  3e+25 m^-3
   RGEOA =      1 
   RGEOB =      0 m^-1
   RGEOC =      0 m^-1
   RGEOD =      0 m^-1
   RGEOE =      0 m^-1
   CGEOA =      1 
   CGEOB =      0 m^-1
   CGEOC =      0 m^-1
   CGEOD =      0 m^-1
   CGEOE =      1 
   AIGBINV = 0.0111 (Fs^2/g)^0.5m^-1
   BIGBINV =   0.03 (Fs^2/g)^0.5m^-1
   CIGBINV =  0.006 V^-1
   EIGBINV =    1.1 V
   NIGBINV =    1.2 
   AIGBACC = 0.0149 
   BIGBACC = 0.000949 
   CIGBACC =  0.075 
   NIGBACC =      3 
   AIGC = 0.0136 (Fs^2/g)^0.5m^-1
   BIGC = 0.00171 (Fs^2/g)^0.5m^-1V^-1
   CIGC =  0.075 V^-1
   NIGC =      1 
   DLCIGS =      0 m
   AIGS = 0.0136 (Fs^2/g)^0.5m^-1
   BIGS = 0.00171 (Fs^2/g)^0.5m^-1V^-1
   CIGS =  0.075 V^-1
   DLCIGD =      0 m
   AIGD = 0.0136 (Fs^2/g)^0.5m^-1
   BIGD = 0.00171 (Fs^2/g)^0.5m^-1V^-1
   CIGD =  0.075 V^-1
   POXEDGE =      1 
   AGIDL = 5.729e-12 ohm^-1
   BGIDL =  3e+08 V/m
   EGIDL =    0.1 V
   AGISL = 5.729e-12 ohm^-1
   BGISL =  3e+08 V/m
   EGISL =    0.1 V
   ALPHA0 =      0 mV^-1
   ALPHA1 =      0 V^-1
   BETA0 =     30 V^-1
   ALPHAII =      0 
   BETAII0 =      0 V^-1
   BETAII1 =      0 
   BETAII2 =    0.1 V
   ESATII =  1e+07 V/m
   LII =  5e-10 V/m
   SII0 =    0.5 V^-1
   SII1 =    0.1 
   SII2 =      0 V
   SIID =      0 V
   EOTACC =  1e-09 m
   DELVFBACC =      0 V
   CFS = 2.56e-11 F/m
   CFD = 2.65e-11 F/m
   COVS = 2.5e-11 F/m
   COVD = 2.5e-11 F/m
   CGSO =      0 F/m
   CGDO =      0 F/m
   CGSL =      0 F/m
   CGDL =      0 F/m
   CKAPPAS =    0.6 V
   CKAPPAD =    0.6 V
   CGBO =      0 F/m
   CGBL =      0 F/m
   CKAPPAB =    0.6 V
   CSDESW =      0 F/m
   CJS = 0.0005 F/m^2
   CJD = 0.0005 F/m^2
   CJSWS =  5e-10 F/m
   CJSWD =  5e-10 F/m
   CJSWGS =      0 F/m
   CJSWGD =      0 F/m
   PBS =      1 V
   PBD =      1 V
   PBSWS =      1 V
   PBSWD =      1 V
   PBSWGS =      1 V
   PBSWGD =      1 V
   MJS, =    0.5 
   MJD =    0.5 
   MJSWS =   0.33 
   MJSWD =   0.33 
   MJSWGS =   0.33 
   MJSWGD =   0.33 
   SJS =      0 
   SJD =      0 
   SJSWS =      0 
   SJSWD =      0 
   SJSWGS =      0 
   SJSWGD =      0 
   MJS2 =  0.125 
   MJD2 =  0.125 
   MJSWS2 =   0.33 
   MJSWD2 =   0.33 
   MJSWGS2 =   0.33 
   MJSWGD2 =   0.33 
   JSS = 0.0001 A/m^2
   JSD = 0.0001 A/m^2
   JSWS =      0 A/m
   JSWD =      0 A/m
   JSWGS =      0 A/m
   JSWGD =      0 A/m
   NJS =      1 
   NJD =      1 
   IJTHSFWD =    0.1 A
   IJTHDFWD =    0.1 A
   IJTHSREV =    0.1 A
   IJTHDREV =    0.1 A
   BVS =     10 V
   BVD =     10 V
   XJBVS =      1 
   XJBVD =      1 
   JTSS =      0 A/m^2
   JTSD =      0 A/m^2
   JTSSWS =      0 A/m
   JTSSWD =      0 A/m
   JTSSWGS =      0 A/m
   JTSSWGD =      0 A/m
   JTWEFF =      0 m
   NJTS =     20 
   NJTSD =     20 
   NJTSSW =     20 
   NJTSSWD =     20 
   NJTSSWG =     20 
   NJTSSWGD =     20 
   VTSS =     10 V
   VTSD =     10 V
   VTSSWS =     10 V
   VTSSWD =     10 V
   VTSSWGS =     10 V
   VTSSWGD =     10 V
   LINTIGEN =      0 m
   NTGEN =      1 
   AIGEN =      0 m^-3V^-1
   BIGEN =      0 m^-3V^-3
   XRCRG1 =     12 
   XRCRG2 =      1 
   NSEG = 5 
   EF =      1 
   EM = 4.1e+07 V/m
   NOIA = 6.25e+39 eV^-1s^1-EFm^-3
   NOIB = 3.125e+24 eV^-1s^1-EFm^-1
   NOIC = 8.75e+07 eV^-1s^1-EFm
   NTNOI =      1 
   TNOM =  300.1 K
   TBGASUB = 0.000702 eV/K
   TBGBSUB =   1108 K
   KT1 =      0 V
   KT1L =      0 Vm
   IIT =   -0.5 
   TII =      0 
   TGIDL = -0.0003 K^-1
   IGT =    2.5 
   TCJ =      0 K^-1
   TCJSW =      0 K^-1
   TCJSWG =      0 K^-1
   TPB =      0 K^-1
   TPBSW =      0 K^-1
   TPBSWG =      0 K^-1
   XTIS =      3 
   XTID =      3 
   XTSS =   0.02 
   XTSD =   0.02 
   XTSSWS =   0.02 
   XTSSWD =   0.02 
   XTSSWGS =   0.02 
   XTSSWGD =   0.02 
   TNJTS =      0 
   TNJTSD =      0 
   TNJTSSW =      0 
   TNJTSSWD =      0 
   TNJTSSWG =      0 
   TNJTSSWGD =      0 
   RTH0 =   0.01 ohm
   CTH0 =  1e-05 F
   WTH0 =      0 m
   LNBODY =      0 
   NNBODY =      0 
   PNBODY =      0 
   LPHIG =      0 
   NPHIG =      0 
   PPHIG =      0 
   LNGATE =      0 
   NNGATE =      0 
   PNGATE =      0 
   LCIT =      0 
   NCIT =      0 
   PCIT =      0 
   LCDSC =      0 
   NCDSC =      0 
   PCDSC =      0 
   LCDSCD =      0 
   NCDSCD =      0 
   PCDSCD =      0 
   LCDSCDR =      0 
   NCDSCDR =      0 
   PCDSCDR =      0 
   LDVT0 =      0 
   NDVT0 =      0 
   PDVT0 =      0 
   LDVT1 =      0 
   NDVT1 =      0 
   PDVT1 =      0 
   LPHIN =      0 
   NPHIN =      0 
   PPHIN =      0 
   LETA0 =      0 
   NETA0 =      0 
   PETA0 =      0 
   LETA0R =      0 
   NETA0R =      0 
   PETA0R =      0 
   LDSUB =      0 
   NDSUB =      0 
   PDSUB =      0 
   LK1RSCE =      0 
   NK1RSCE =      0 
   PK1RSCE =      0 
   LLPE0 =      0 
   NLPE0 =      0 
   PLPE0 =      0 
   LQMFACTOR =      0 
   NQMFACTOR =      0 
   PQMFACTOR =      0 
   LQMTCENIV =      0 
   NQMTCENIV =      0 
   PQMTCENIV =      0 
   LQMTCENCV =      0 
   NQMTCENCV =      0 
   PQMTCENCV =      0 
   LVSAT =      0 
   NVSAT =      0 
   PVSAT =      0 
   LKSATIV =      0 
   NKSATIV =      0 
   PKSATIV =      0 
   LMEXP =      0 
   NMEXP =      0 
   PMEXP =      0 
   LPTWG =      0 
   NPTWG =      0 
   PPTWG =      0 
   LTHETASAT =      0 
   NTHETASAT =      0 
   PTHETASAT =      0 
   LU0 =      0 
   NU0 =      0 
   PU0 =      0 
   LUP =      0 
   NUP =      0 
   PUP =      0 
   LUA =      0 
   NUA =      0 
   PUA =      0 
   LEU =      0 
   NEU =      0 
   PEU =      0 
   LUD =      0 
   NUD =      0 
   PUD =      0 
   LUCS =      0 
   NUCS =      0 
   PUCS =      0 
   LPCLM =      0 
   NPCLM =      0 
   PPCLM =      0 
   LPCLMCV =      0 
   NPCLMCV =      0 
   PPCLMCV =      0 
   LRDSW =      0 
   NRDSW =      0 
   PRDSW =      0 
   LRSW =      0 
   NRSW =      0 
   PRSW =      0 
   LRDW =      0 
   NRDW =      0 
   PRDW =      0 
   LPRWG =      0 
   NPRWG =      0 
   PPRWG =      0 
   LWR =      0 
   NWR =      0 
   PWR =      0 
   LPDIBL1 =      0 
   NPDIBL1 =      0 
   PPDIBL1 =      0 
   LPDIBL2 =      0 
   NPDIBL2 =      0 
   PPDIBL2 =      0 
   LDROUT =      0 
   NDROUT =      0 
   PDROUT =      0 
   LPVAG =      0 
   NPVAG =      0 
   PPVAG =      0 
   LAIGBINV =      0 
   NAIGBINV =      0 
   PAIGBINV =      0 
   LBIGBINV =      0 
   NBIGBINV =      0 
   PBIGBINV =      0 
   LCIGBINV =      0 
   NCIGBINV =      0 
   PCIGBINV =      0 
   LEIGBINV =      0 
   NEIGBINV =      0 
   PEIGBINV =      0 
   LNIGBINV =      0 
   NNIGBINV =      0 
   PNIGBINV =      0 
   LAIGC =      0 
   NAIGC =      0 
   PAIGC =      0 
   LBIGC =      0 
   NBIGC =      0 
   PBIGC =      0 
   LCIGC =      0 
   NCIGC =      0 
   PCIGC =      0 
   LNIGC =      0 
   NNIGC =      0 
   PNIGC =      0 
   LAIGS =      0 
   NAIGS =      0 
   PAIGS =      0 
   LBIGS =      0 
   NBIGS =      0 
   PBIGS =      0 
   LCIGS =      0 
   NCIGS =      0 
   PCIGS =      0 
   LAIGD =      0 
   NAIGD =      0 
   PAIGD =      0 
   LBIGD =      0 
   NBIGD =      0 
   PBIGD =      0 
   LCIGD =      0 
   NCIGD =      0 
   PCIGD =      0 
   LPOXEDGE =      0 
   NPOXEDGE =      0 
   PPOXEDGE =      0 
   LAGIDL =      0 
   NAGIDL =      0 
   PAGIDL =      0 
   LBGIDL =      0 
   NBGIDL =      0 
   PBGIDL =      0 
   LEGIDL =      0 
   NEGIDL =      0 
   PEGIDL =      0 
   LAGISL =      0 
   NAGISL =      0 
   PAGISL =      0 
   LBGISL =      0 
   NBGISL =      0 
   PBGISL =      0 
   LEGISL =      0 
   NEGISL =      0 
   PEGISL =      0 
   LALPHA0 =      0 
   NALPHA0 =      0 
   PALPHA0 =      0 
   LALPHA1 =      0 
   NALPHA1 =      0 
   PALPHA1 =      0 
   LBETA0 =      0 
   NBETA0 =      0 
   PBETA0 =      0 
   LALPHAII =      0 
   NALPHAII =      0 
   PALPHAII =      0 
   LBETAII0 =      0 
   NBETAII0 =      0 
   PBETAII0 =      0 
   LBETAII1 =      0 
   NBETAII1 =      0 
   PBETAII1 =      0 
   LBETAII2 =      0 
   NBETAII2 =      0 
   PBETAII2 =      0 
   LESATII =      0 
   NESATII =      0 
   PESATII =      0 
   LLII =      0 
   NLII =      0 
   PLII =      0 
   LSII0 =      0 
   NSII0 =      0 
   PSII0 =      0 
   LSII1 =      0 
   NSII1 =      0 
   PSII1 =      0 
   LSII2 =      0 
   NSII2 =      0 
   PSII2 =      0 
   LSIID =      0 
   NSIID =      0 
   PSIID =      0 
   LCFS =      0 
   NCFS =      0 
   PCFS =      0 
   LCFD =      0 
   NCFD =      0 
   PCFD =      0 
   LCOVS =      0 
   NCOVS =      0 
   PCOVS =      0 
   LCOVD =      0 
   NCOVD =      0 
   PCOVD =      0 
   LCGSL =      0 
   NCGSL =      0 
   PCGSL =      0 
   LCGDL =      0 
   NCGDL =      0 
   PCGDL =      0 
   LCKAPPAS =      0 
   NCKAPPAS =      0 
   PCKAPPAS =      0 
   LCKAPPAD =      0 
   NCKAPPAD =      0 
   PCKAPPAD =      0 
   LCGBL =      0 
   NCGBL =      0 
   PCGBL =      0 
   LCKAPPAB =      0 
   NCKAPPAB =      0 
   PCKAPPAB =      0 
   LNTGEN =      0 
   NNTGEN =      0 
   PNTGEN =      0 
   LAIGEN =      0 
   NAIGEN =      0 
   PAIGEN =      0 
   LBIGEN =      0 
   NBIGEN =      0 
   PBIGEN =      0 
   LXRCRG1 =      0 
   NXRCRG1 =      0 
   PXRCRG1 =      0 
   LXRCRG2 =      0 
   NXRCRG2 =      0 
   PXRCRG2 =      0 
   LINTNOI =      0 
   NINTNOI =      0 
   PINTNOI =      0 
   LUTE =      0 
   NUTE =      0 
   PUTE =      0 
   LUTL =      0 
   NUTL =      0 
   PUTL =      0 
   LUA1 =      0 
   NUA1 =      0 
   PUA1 =      0 
   LUD1 =      0 
   NUD1 =      0 
   PUD1 =      0 
   LUCSTE =      0 
   NUCSTE =      0 
   PUCSTE =      0 
   LPTWGT =      0 
   NPTWGT =      0 
   PPTWGT =      0 
   LAT =      0 
   NAT =      0 
   PAT =      0 
   LSTTHETASAT =      0 
   NSTTHETASAT =      0 
   PSTTHETASAT =      0 
   LPRT =      0 
   NPRT =      0 
   PPRT =      0 
   LIIT =      0 
   NIIT =      0 
   PIIT =      0 
   LTII =      0 
   NTII =      0 
   PTII =      0 
   LTGIDL =      0 
   NTGIDL =      0 
   PTGIDL =      0 
   LIGT =      0 
   NIGT =      0 
   PIGT =      0 
   L =  2e-08 m
   D =  4e-08 m
   TFIN = 1.2e-08 m
   FPITCH = 4.2e-08 m
   NF = 1 
   NFIN = 1 
   NGCON = 1 
   ASEO =      0 m^2
   ADEO =      0 m^2
   PSEO =      0 m
   PDEO =      0 m
   ASEJ =      0 m^2
   ADEJ =      0 m^2
   PSEJ =      0 m
   PDEJ =      0 m
   CGSP =      0 F
   CGDP =      0 F
   CDSP =      0 F
   NRS =      0 
   NRD =      0 
   LRSD =  2e-08 m
   XL =      0 m
   DELVTRAND =      0 
   U0MULT =      1 
   IDS0MULT =      1 
   Lmin =  1e-08 m
   Lmax =  3e-08 m
   NFINmin = 0 
   NFINmax = 1 
   LVSAT1 =      0 
   NVSAT1 =      0 
   PVSAT1 =      0 
   LETAMOB =      0 
   NETAMOB =      0 
   PETAMOB =      0 
   LPCLMG =      0 
   NPCLMG =      0 
   PPCLMG =      0 
   LVASAT =      0 
   NVASAT =      0 
   PVASAT =      0 
   LAIGBACC =      0 
   NAIGBACC =      0 
   PAIGBACC =      0 
   LBIGBACC =      0 
   NBIGBACC =      0 
   PBIGBACC =      0 
   LCIGBACC =      0 
   NCIGBACC =      0 
   PCIGBACC =      0 
   LNIGBACC =      0 
   NNIGBACC =      0 
   PNIGBACC =      0 
 Model Name: nfet 
 BSIM-MG BULK Model(Level72)
   VERSION = 105.03  
   DEVTYPE = 1 
   BULKMOD = 1  
   COREMOD = 0 
   GEOMOD = 1 
   RDSMOD = 1 
   IGCMOD = 1 
   IGBMOD = 1 
   GIDLMOD = 0 
   IIMOD = 0 
   NQSMOD = 0 
   SHMOD = 0 
   RGATEMOD = 0 
   RGEOMOD = 1 
   CGEOMOD = 2 
   CAPMOD = 0 
   LINT = -1e-09 m
   LL =      0 m^(LLN+1)
   LLN =      1 
   DLC =      0 m
   DLBIN =      0 
   LLC =      0 m^(LLN+1)
   EOT =  1e-09 m
   TOXP = 1.35e-09 m
   EOTBOX = 1.4e-07 m
   HFIN = 2.6e-08 m
   FECH =      1 
   DELTAW =      0 m
   FECHCV =      1 
   DELTAWCV =      0 m
   NBODY =  1e+23 m^-3
   NSD =  3e+26 m^-3
   PHIG =  4.589 eV
   EPSROX =    3.9 
   EPSRSUB =   11.9 
   EASUB =   4.05 eV
   NI0SUB = 1.1e+16 m^-3
   BG0SUB =   1.12 eV
   NC0SUB = 2.86e+25 m^-3
   NGATE =      0 m^-3
   CIT = 1.3e-05 F/m^2
   CDSC =  0.021 F/m^2
   CDSCD =  0.007 F/m^2
   CDSCDR =  0.007 
   DVT0 =   0.01 
   DVT1 =   0.69 
   PHIN =   0.05 V
   ETA0 = 0.7358 
   ETA0R = 0.7358 
   DSUB =    0.9 
   K1RSCE =      0 V^1/2
   LPE0 =  5e-09 m
   DVTSHIFT =      0 
   QMFACTOR =      0 
   QMTCENIV =      0 
   QMTCENCV =      0 
   AQMTCEN =      0 
   BQMTCEN = 1.2e-08 
   ETAQM =   0.54 
   QM0 = 0.001143 
   PQM =   0.66 
   QM0ACC =  0.001 
   PQMACC =   0.66 
   VSAT =  9e+04 
   AVSAT =      0 
   BVSAT =  1e-07 
   VSAT1 =  9e+04 
   AVSAT1 =      0 
   BVSAT1 =  1e-07 
   DELTAVSAT =      1 
   KSATIV =    0.8 
   MEXP =      3 
   AMEXP =      0 
   BMEXP =      1 
   PTWG =      0 
   APTWG =      0 
   BPTWG =  1e-07 
   AT = -0.00156 
   TMEXP =      0 
   PTWGT =  0.004 
   U0 = 0.0448 
   ETAMOB =      2 
   UP =      0 
   LPA =      1 
   UA =    0.3 
   AUA =      0 
   BUA =  1e-07 
   EU =    1.8 
   AEU =      0 
   BEU =  1e-07 
   UD =      0 
   AUD =      0 
   BUD =  5e-08 
   UCS =      0 
   UTE =      0 
   UTL = -0.0015 
   UA1 = 0.001032 
   UD1 =      0 
   UCSTE = -0.00478 
   RDSWMIN =      0 
   RDSW =    100 
   ARDSW =      0 
   BRDSW =  1e-07 
   RSWMIN =      0 
   RSW =      0 
   ARSW =      0 
   BRSW =  1e-07 
   RDWMIN =      0 
   RDW =      0 
   ARDW =      0 
   BRDW =  1e-07 
   PRWG =      0 
   WR =      1 
   PRT =  0.001 
   PDIBL1 =    1.3 
   PDIBL2 = 0.0002 
   DROUT =   1.06 
   PVAG =      1 
   PCLM =    0.2 
   APCLM =      0 
   BPCLM =  1e-07 
   PCLMG =      0 
   VASAT =    0.6 
   PCLMCV =  0.013 
   PCLMGCV =      0 
   VASATCV =    0.2 
   RGEXT =      0 ohm
   RGFIN =  0.001 ohm
   RSHS =      0 ohm
   RSHD =      0 ohm
   HEPI = 9.5e-09 m
   TSILI =  9e-09 m
   RHOC = 1.5e-12 ohm/m^2
   RHORSD =      1 ohm/m
   RHOEXT =      1 ohm/m
   CRATIO =    0.5 
   DELTAPRSD =      0 m
   SDTERM = 0 
   LSP =  4e-09 m
   LDG =  3e-09 m
   EPSRSP =    3.9 
   TGATE =  9e-09 m
   TMASK =      0 m
   ASILIEND =      0 m^2
   ARSDEND =      0 m^2
   PRSDEND =      0 m
   NSDE =  3e+25 m^-3
   RGEOA =      1 
   RGEOB =      0 m^-1
   RGEOC =      0 m^-1
   RGEOD =      0 m^-1
   RGEOE =      0 m^-1
   CGEOA =      1 
   CGEOB =      0 m^-1
   CGEOC =      0 m^-1
   CGEOD =      0 m^-1
   CGEOE =      1 
   AIGBINV = 0.0111 (Fs^2/g)^0.5m^-1
   BIGBINV =   0.03 (Fs^2/g)^0.5m^-1
   CIGBINV =  0.006 V^-1
   EIGBINV =    1.1 V
   NIGBINV =    1.2 
   AIGBACC = 0.0149 
   BIGBACC = 0.000949 
   CIGBACC =  0.075 
   NIGBACC =      3 
   AIGC = 0.0136 (Fs^2/g)^0.5m^-1
   BIGC = 0.00171 (Fs^2/g)^0.5m^-1V^-1
   CIGC =  0.075 V^-1
   NIGC =      1 
   DLCIGS =      0 m
   AIGS = 0.0136 (Fs^2/g)^0.5m^-1
   BIGS = 0.00171 (Fs^2/g)^0.5m^-1V^-1
   CIGS =  0.075 V^-1
   DLCIGD =      0 m
   AIGD = 0.0136 (Fs^2/g)^0.5m^-1
   BIGD = 0.00171 (Fs^2/g)^0.5m^-1V^-1
   CIGD =  0.075 V^-1
   POXEDGE =      1 
   AGIDL = 5.729e-12 ohm^-1
   BGIDL =  3e+08 V/m
   EGIDL =    0.1 V
   AGISL = 5.729e-12 ohm^-1
   BGISL =  3e+08 V/m
   EGISL =    0.1 V
   ALPHA0 =      0 mV^-1
   ALPHA1 =      0 V^-1
   BETA0 =     30 V^-1
   ALPHAII =      0 
   BETAII0 =      0 V^-1
   BETAII1 =      0 
   BETAII2 =    0.1 V
   ESATII =  1e+07 V/m
   LII =  5e-10 V/m
   SII0 =    0.5 V^-1
   SII1 =    0.1 
   SII2 =      0 V
   SIID =      0 V
   EOTACC =  1e-09 m
   DELVFBACC =      0 V
   CFS = 2.56e-11 F/m
   CFD = 2.65e-11 F/m
   COVS = 2.5e-11 F/m
   COVD = 2.5e-11 F/m
   CGSO =      0 F/m
   CGDO =      0 F/m
   CGSL =      0 F/m
   CGDL =      0 F/m
   CKAPPAS =    0.6 V
   CKAPPAD =    0.6 V
   CGBO =      0 F/m
   CGBL =      0 F/m
   CKAPPAB =    0.6 V
   CSDESW =      0 F/m
   CJS = 0.0005 F/m^2
   CJD = 0.0005 F/m^2
   CJSWS =  5e-10 F/m
   CJSWD =  5e-10 F/m
   CJSWGS =      0 F/m
   CJSWGD =      0 F/m
   PBS =      1 V
   PBD =      1 V
   PBSWS =      1 V
   PBSWD =      1 V
   PBSWGS =      1 V
   PBSWGD =      1 V
   MJS, =    0.5 
   MJD =    0.5 
   MJSWS =   0.33 
   MJSWD =   0.33 
   MJSWGS =   0.33 
   MJSWGD =   0.33 
   SJS =      0 
   SJD =      0 
   SJSWS =      0 
   SJSWD =      0 
   SJSWGS =      0 
   SJSWGD =      0 
   MJS2 =  0.125 
   MJD2 =  0.125 
   MJSWS2 =   0.33 
   MJSWD2 =   0.33 
   MJSWGS2 =   0.33 
   MJSWGD2 =   0.33 
   JSS = 0.0001 A/m^2
   JSD = 0.0001 A/m^2
   JSWS =      0 A/m
   JSWD =      0 A/m
   JSWGS =      0 A/m
   JSWGD =      0 A/m
   NJS =      1 
   NJD =      1 
   IJTHSFWD =    0.1 A
   IJTHDFWD =    0.1 A
   IJTHSREV =    0.1 A
   IJTHDREV =    0.1 A
   BVS =     10 V
   BVD =     10 V
   XJBVS =      1 
   XJBVD =      1 
   JTSS =      0 A/m^2
   JTSD =      0 A/m^2
   JTSSWS =      0 A/m
   JTSSWD =      0 A/m
   JTSSWGS =      0 A/m
   JTSSWGD =      0 A/m
   JTWEFF =      0 m
   NJTS =     20 
   NJTSD =     20 
   NJTSSW =     20 
   NJTSSWD =     20 
   NJTSSWG =     20 
   NJTSSWGD =     20 
   VTSS =     10 V
   VTSD =     10 V
   VTSSWS =     10 V
   VTSSWD =     10 V
   VTSSWGS =     10 V
   VTSSWGD =     10 V
   LINTIGEN =      0 m
   NTGEN =      1 
   AIGEN =      0 m^-3V^-1
   BIGEN =      0 m^-3V^-3
   XRCRG1 =     12 
   XRCRG2 =      1 
   NSEG = 5 
   EF =      1 
   EM = 4.1e+07 V/m
   NOIA = 6.25e+39 eV^-1s^1-EFm^-3
   NOIB = 3.125e+24 eV^-1s^1-EFm^-1
   NOIC = 8.75e+07 eV^-1s^1-EFm
   NTNOI =      1 
   TNOM =  300.1 K
   TBGASUB = 0.000702 eV/K
   TBGBSUB =   1108 K
   KT1 =      0 V
   KT1L =      0 Vm
   IIT =   -0.5 
   TII =      0 
   TGIDL = -0.0003 K^-1
   IGT =    2.5 
   TCJ =      0 K^-1
   TCJSW =      0 K^-1
   TCJSWG =      0 K^-1
   TPB =      0 K^-1
   TPBSW =      0 K^-1
   TPBSWG =      0 K^-1
   XTIS =      3 
   XTID =      3 
   XTSS =   0.02 
   XTSD =   0.02 
   XTSSWS =   0.02 
   XTSSWD =   0.02 
   XTSSWGS =   0.02 
   XTSSWGD =   0.02 
   TNJTS =      0 
   TNJTSD =      0 
   TNJTSSW =      0 
   TNJTSSWD =      0 
   TNJTSSWG =      0 
   TNJTSSWGD =      0 
   RTH0 =   0.01 ohm
   CTH0 =  1e-05 F
   WTH0 =      0 m
   LNBODY =      0 
   NNBODY =      0 
   PNBODY =      0 
   LPHIG =      0 
   NPHIG =      0 
   PPHIG =      0 
   LNGATE =      0 
   NNGATE =      0 
   PNGATE =      0 
   LCIT =      0 
   NCIT =      0 
   PCIT =      0 
   LCDSC =      0 
   NCDSC =      0 
   PCDSC =      0 
   LCDSCD =      0 
   NCDSCD =      0 
   PCDSCD =      0 
   LCDSCDR =      0 
   NCDSCDR =      0 
   PCDSCDR =      0 
   LDVT0 =      0 
   NDVT0 =      0 
   PDVT0 =      0 
   LDVT1 =      0 
   NDVT1 =      0 
   PDVT1 =      0 
   LPHIN =      0 
   NPHIN =      0 
   PPHIN =      0 
   LETA0 =      0 
   NETA0 =      0 
   PETA0 =      0 
   LETA0R =      0 
   NETA0R =      0 
   PETA0R =      0 
   LDSUB =      0 
   NDSUB =      0 
   PDSUB =      0 
   LK1RSCE =      0 
   NK1RSCE =      0 
   PK1RSCE =      0 
   LLPE0 =      0 
   NLPE0 =      0 
   PLPE0 =      0 
   LQMFACTOR =      0 
   NQMFACTOR =      0 
   PQMFACTOR =      0 
   LQMTCENIV =      0 
   NQMTCENIV =      0 
   PQMTCENIV =      0 
   LQMTCENCV =      0 
   NQMTCENCV =      0 
   PQMTCENCV =      0 
   LVSAT =      0 
   NVSAT =      0 
   PVSAT =      0 
   LKSATIV =      0 
   NKSATIV =      0 
   PKSATIV =      0 
   LMEXP =      0 
   NMEXP =      0 
   PMEXP =      0 
   LPTWG =      0 
   NPTWG =      0 
   PPTWG =      0 
   LTHETASAT =      0 
   NTHETASAT =      0 
   PTHETASAT =      0 
   LU0 =      0 
   NU0 =      0 
   PU0 =      0 
   LUP =      0 
   NUP =      0 
   PUP =      0 
   LUA =      0 
   NUA =      0 
   PUA =      0 
   LEU =      0 
   NEU =      0 
   PEU =      0 
   LUD =      0 
   NUD =      0 
   PUD =      0 
   LUCS =      0 
   NUCS =      0 
   PUCS =      0 
   LPCLM =      0 
   NPCLM =      0 
   PPCLM =      0 
   LPCLMCV =      0 
   NPCLMCV =      0 
   PPCLMCV =      0 
   LRDSW =      0 
   NRDSW =      0 
   PRDSW =      0 
   LRSW =      0 
   NRSW =      0 
   PRSW =      0 
   LRDW =      0 
   NRDW =      0 
   PRDW =      0 
   LPRWG =      0 
   NPRWG =      0 
   PPRWG =      0 
   LWR =      0 
   NWR =      0 
   PWR =      0 
   LPDIBL1 =      0 
   NPDIBL1 =      0 
   PPDIBL1 =      0 
   LPDIBL2 =      0 
   NPDIBL2 =      0 
   PPDIBL2 =      0 
   LDROUT =      0 
   NDROUT =      0 
   PDROUT =      0 
   LPVAG =      0 
   NPVAG =      0 
   PPVAG =      0 
   LAIGBINV =      0 
   NAIGBINV =      0 
   PAIGBINV =      0 
   LBIGBINV =      0 
   NBIGBINV =      0 
   PBIGBINV =      0 
   LCIGBINV =      0 
   NCIGBINV =      0 
   PCIGBINV =      0 
   LEIGBINV =      0 
   NEIGBINV =      0 
   PEIGBINV =      0 
   LNIGBINV =      0 
   NNIGBINV =      0 
   PNIGBINV =      0 
   LAIGC =      0 
   NAIGC =      0 
   PAIGC =      0 
   LBIGC =      0 
   NBIGC =      0 
   PBIGC =      0 
   LCIGC =      0 
   NCIGC =      0 
   PCIGC =      0 
   LNIGC =      0 
   NNIGC =      0 
   PNIGC =      0 
   LAIGS =      0 
   NAIGS =      0 
   PAIGS =      0 
   LBIGS =      0 
   NBIGS =      0 
   PBIGS =      0 
   LCIGS =      0 
   NCIGS =      0 
   PCIGS =      0 
   LAIGD =      0 
   NAIGD =      0 
   PAIGD =      0 
   LBIGD =      0 
   NBIGD =      0 
   PBIGD =      0 
   LCIGD =      0 
   NCIGD =      0 
   PCIGD =      0 
   LPOXEDGE =      0 
   NPOXEDGE =      0 
   PPOXEDGE =      0 
   LAGIDL =      0 
   NAGIDL =      0 
   PAGIDL =      0 
   LBGIDL =      0 
   NBGIDL =      0 
   PBGIDL =      0 
   LEGIDL =      0 
   NEGIDL =      0 
   PEGIDL =      0 
   LAGISL =      0 
   NAGISL =      0 
   PAGISL =      0 
   LBGISL =      0 
   NBGISL =      0 
   PBGISL =      0 
   LEGISL =      0 
   NEGISL =      0 
   PEGISL =      0 
   LALPHA0 =      0 
   NALPHA0 =      0 
   PALPHA0 =      0 
   LALPHA1 =      0 
   NALPHA1 =      0 
   PALPHA1 =      0 
   LBETA0 =      0 
   NBETA0 =      0 
   PBETA0 =      0 
   LALPHAII =      0 
   NALPHAII =      0 
   PALPHAII =      0 
   LBETAII0 =      0 
   NBETAII0 =      0 
   PBETAII0 =      0 
   LBETAII1 =      0 
   NBETAII1 =      0 
   PBETAII1 =      0 
   LBETAII2 =      0 
   NBETAII2 =      0 
   PBETAII2 =      0 
   LESATII =      0 
   NESATII =      0 
   PESATII =      0 
   LLII =      0 
   NLII =      0 
   PLII =      0 
   LSII0 =      0 
   NSII0 =      0 
   PSII0 =      0 
   LSII1 =      0 
   NSII1 =      0 
   PSII1 =      0 
   LSII2 =      0 
   NSII2 =      0 
   PSII2 =      0 
   LSIID =      0 
   NSIID =      0 
   PSIID =      0 
   LCFS =      0 
   NCFS =      0 
   PCFS =      0 
   LCFD =      0 
   NCFD =      0 
   PCFD =      0 
   LCOVS =      0 
   NCOVS =      0 
   PCOVS =      0 
   LCOVD =      0 
   NCOVD =      0 
   PCOVD =      0 
   LCGSL =      0 
   NCGSL =      0 
   PCGSL =      0 
   LCGDL =      0 
   NCGDL =      0 
   PCGDL =      0 
   LCKAPPAS =      0 
   NCKAPPAS =      0 
   PCKAPPAS =      0 
   LCKAPPAD =      0 
   NCKAPPAD =      0 
   PCKAPPAD =      0 
   LCGBL =      0 
   NCGBL =      0 
   PCGBL =      0 
   LCKAPPAB =      0 
   NCKAPPAB =      0 
   PCKAPPAB =      0 
   LNTGEN =      0 
   NNTGEN =      0 
   PNTGEN =      0 
   LAIGEN =      0 
   NAIGEN =      0 
   PAIGEN =      0 
   LBIGEN =      0 
   NBIGEN =      0 
   PBIGEN =      0 
   LXRCRG1 =      0 
   NXRCRG1 =      0 
   PXRCRG1 =      0 
   LXRCRG2 =      0 
   NXRCRG2 =      0 
   PXRCRG2 =      0 
   LINTNOI =      0 
   NINTNOI =      0 
   PINTNOI =      0 
   LUTE =      0 
   NUTE =      0 
   PUTE =      0 
   LUTL =      0 
   NUTL =      0 
   PUTL =      0 
   LUA1 =      0 
   NUA1 =      0 
   PUA1 =      0 
   LUD1 =      0 
   NUD1 =      0 
   PUD1 =      0 
   LUCSTE =      0 
   NUCSTE =      0 
   PUCSTE =      0 
   LPTWGT =      0 
   NPTWGT =      0 
   PPTWGT =      0 
   LAT =      0 
   NAT =      0 
   PAT =      0 
   LSTTHETASAT =      0 
   NSTTHETASAT =      0 
   PSTTHETASAT =      0 
   LPRT =      0 
   NPRT =      0 
   PPRT =      0 
   LIIT =      0 
   NIIT =      0 
   PIIT =      0 
   LTII =      0 
   NTII =      0 
   PTII =      0 
   LTGIDL =      0 
   NTGIDL =      0 
   PTGIDL =      0 
   LIGT =      0 
   NIGT =      0 
   PIGT =      0 
   L =  2e-08 m
   D =  4e-08 m
   TFIN = 1.2e-08 m
   FPITCH = 4.2e-08 m
   NF = 1 
   NFIN = 1 
   NGCON = 1 
   ASEO =      0 m^2
   ADEO =      0 m^2
   PSEO =      0 m
   PDEO =      0 m
   ASEJ =      0 m^2
   ADEJ =      0 m^2
   PSEJ =      0 m
   PDEJ =      0 m
   CGSP =      0 F
   CGDP =      0 F
   CDSP =      0 F
   NRS =      0 
   NRD =      0 
   LRSD =  2e-08 m
   XL =      0 m
   DELVTRAND =      0 
   U0MULT =      1 
   IDS0MULT =      1 
   Lmin =  1e-08 m
   Lmax =  3e-08 m
   NFINmin = 0 
   NFINmax = 1 
   LVSAT1 =      0 
   NVSAT1 =      0 
   PVSAT1 =      0 
   LETAMOB =      0 
   NETAMOB =      0 
   PETAMOB =      0 
   LPCLMG =      0 
   NPCLMG =      0 
   PPCLMG =      0 
   LVASAT =      0 
   NVASAT =      0 
   PVASAT =      0 
   LAIGBACC =      0 
   NAIGBACC =      0 
   PAIGBACC =      0 
   LBIGBACC =      0 
   NBIGBACC =      0 
   PBIGBACC =      0 
   LCIGBACC =      0 
   NCIGBACC =      0 
   PCIGBACC =      0 
   LNIGBACC =      0 
   NNIGBACC =      0 
   PNIGBACC =      0 
 Model Name: pfet 
 BSIM-MG BULK Model(Level72)
   VERSION = 105.03  
   DEVTYPE = -1 
   BULKMOD = 1  
   COREMOD = 0 
   GEOMOD = 1 
   RDSMOD = 1 
   IGCMOD = 1 
   IGBMOD = 1 
   GIDLMOD = 0 
   IIMOD = 0 
   NQSMOD = 0 
   SHMOD = 0 
   RGATEMOD = 0 
   RGEOMOD = 1 
   CGEOMOD = 2 
   CAPMOD = 0 
   LINT = -1e-09 m
   LL =      0 m^(LLN+1)
   LLN =      1 
   DLC =      0 m
   DLBIN =      0 
   LLC =      0 m^(LLN+1)
   EOT =  1e-09 m
   TOXP = 1.35e-09 m
   EOTBOX = 1.4e-07 m
   HFIN = 2.6e-08 m
   FECH =      1 
   DELTAW =      0 m
   FECHCV =      1 
   DELTAWCV =      0 m
   NBODY =  1e+23 m^-3
   NSD =  3e+26 m^-3
   PHIG =  4.588 eV
   EPSROX =    3.9 
   EPSRSUB =   11.9 
   EASUB =   4.05 eV
   NI0SUB = 1.1e+16 m^-3
   BG0SUB =   1.12 eV
   NC0SUB = 2.86e+25 m^-3
   NGATE =      0 m^-3
   CIT = 1.3e-05 F/m^2
   CDSC =  0.021 F/m^2
   CDSCD =  0.007 F/m^2
   CDSCDR =  0.007 
   DVT0 =   0.01 
   DVT1 =   0.69 
   PHIN =   0.05 V
   ETA0 = 0.9925 
   ETA0R = 0.9925 
   DSUB =    0.9 
   K1RSCE =      0 V^1/2
   LPE0 =  5e-09 m
   DVTSHIFT =      0 
   QMFACTOR =      0 
   QMTCENIV =      0 
   QMTCENCV =      0 
   AQMTCEN =      0 
   BQMTCEN = 1.2e-08 
   ETAQM =   0.54 
   QM0 = 0.001143 
   PQM =   0.66 
   QM0ACC =  0.001 
   PQMACC =   0.66 
   VSAT = 8.8e+04 
   AVSAT =      0 
   BVSAT =  1e-07 
   VSAT1 = 8.8e+04 
   AVSAT1 =      0 
   BVSAT1 =  1e-07 
   DELTAVSAT =      1 
   KSATIV =    0.8 
   MEXP =      3 
   AMEXP =      0 
   BMEXP =      1 
   PTWG =      0 
   APTWG =      0 
   BPTWG =  1e-07 
   AT = -0.00156 
   TMEXP =      0 
   PTWGT =  0.004 
   U0 =   0.03 
   ETAMOB =      2 
   UP =      0 
   LPA =      1 
   UA =    0.3 
   AUA =      0 
   BUA =  1e-07 
   EU =    1.8 
   AEU =      0 
   BEU =  1e-07 
   UD =      0 
   AUD =      0 
   BUD =  5e-08 
   UCS =      0 
   UTE =      0 
   UTL = -0.0015 
   UA1 = 0.001032 
   UD1 =      0 
   UCSTE = -0.00478 
   RDSWMIN =      0 
   RDSW =    100 
   ARDSW =      0 
   BRDSW =  1e-07 
   RSWMIN =      0 
   RSW =      0 
   ARSW =      0 
   BRSW =  1e-07 
   RDWMIN =      0 
   RDW =      0 
   ARDW =      0 
   BRDW =  1e-07 
   PRWG =      0 
   WR =      1 
   PRT =  0.001 
   PDIBL1 =    1.3 
   PDIBL2 = 0.0002 
   DROUT =   1.06 
   PVAG =      1 
   PCLM =    0.2 
   APCLM =      0 
   BPCLM =  1e-07 
   PCLMG =      0 
   VASAT =    0.6 
   PCLMCV =  0.013 
   PCLMGCV =      0 
   VASATCV =    0.2 
   RGEXT =      0 ohm
   RGFIN =  0.001 ohm
   RSHS =      0 ohm
   RSHD =      0 ohm
   HEPI = 9.5e-09 m
   TSILI =  9e-09 m
   RHOC =  2e-12 ohm/m^2
   RHORSD =      1 ohm/m
   RHOEXT =      1 ohm/m
   CRATIO =    0.5 
   DELTAPRSD =      0 m
   SDTERM = 0 
   LSP =  4e-09 m
   LDG =  3e-09 m
   EPSRSP =    3.9 
   TGATE =  9e-09 m
   TMASK =      0 m
   ASILIEND =      0 m^2
   ARSDEND =      0 m^2
   PRSDEND =      0 m
   NSDE =  3e+25 m^-3
   RGEOA =      1 
   RGEOB =      0 m^-1
   RGEOC =      0 m^-1
   RGEOD =      0 m^-1
   RGEOE =      0 m^-1
   CGEOA =      1 
   CGEOB =      0 m^-1
   CGEOC =      0 m^-1
   CGEOD =      0 m^-1
   CGEOE =      1 
   AIGBINV = 0.0111 (Fs^2/g)^0.5m^-1
   BIGBINV =   0.03 (Fs^2/g)^0.5m^-1
   CIGBINV =  0.006 V^-1
   EIGBINV =    1.1 V
   NIGBINV =    1.2 
   AIGBACC = 0.0149 
   BIGBACC = 0.000949 
   CIGBACC =  0.075 
   NIGBACC =      3 
   AIGC = 0.0136 (Fs^2/g)^0.5m^-1
   BIGC = 0.00171 (Fs^2/g)^0.5m^-1V^-1
   CIGC =  0.075 V^-1
   NIGC =      1 
   DLCIGS =      0 m
   AIGS = 0.0136 (Fs^2/g)^0.5m^-1
   BIGS = 0.00171 (Fs^2/g)^0.5m^-1V^-1
   CIGS =  0.075 V^-1
   DLCIGD =      0 m
   AIGD = 0.0136 (Fs^2/g)^0.5m^-1
   BIGD = 0.00171 (Fs^2/g)^0.5m^-1V^-1
   CIGD =  0.075 V^-1
   POXEDGE =      1 
   AGIDL = 5.729e-12 ohm^-1
   BGIDL =  3e+08 V/m
   EGIDL =    0.1 V
   AGISL = 5.729e-12 ohm^-1
   BGISL =  3e+08 V/m
   EGISL =    0.1 V
   ALPHA0 =      0 mV^-1
   ALPHA1 =      0 V^-1
   BETA0 =     30 V^-1
   ALPHAII =      0 
   BETAII0 =      0 V^-1
   BETAII1 =      0 
   BETAII2 =    0.1 V
   ESATII =  1e+07 V/m
   LII =  5e-10 V/m
   SII0 =    0.5 V^-1
   SII1 =    0.1 
   SII2 =      0 V
   SIID =      0 V
   EOTACC =  1e-09 m
   DELVFBACC =      0 V
   CFS = 2.56e-11 F/m
   CFD = 2.65e-11 F/m
   COVS = 2.5e-11 F/m
   COVD = 2.5e-11 F/m
   CGSO =      0 F/m
   CGDO =      0 F/m
   CGSL =      0 F/m
   CGDL =      0 F/m
   CKAPPAS =    0.6 V
   CKAPPAD =    0.6 V
   CGBO =      0 F/m
   CGBL =      0 F/m
   CKAPPAB =    0.6 V
   CSDESW =      0 F/m
   CJS = 0.0005 F/m^2
   CJD = 0.0005 F/m^2
   CJSWS =  5e-10 F/m
   CJSWD =  5e-10 F/m
   CJSWGS =      0 F/m
   CJSWGD =      0 F/m
   PBS =      1 V
   PBD =      1 V
   PBSWS =      1 V
   PBSWD =      1 V
   PBSWGS =      1 V
   PBSWGD =      1 V
   MJS, =    0.5 
   MJD =    0.5 
   MJSWS =   0.33 
   MJSWD =   0.33 
   MJSWGS =   0.33 
   MJSWGD =   0.33 
   SJS =      0 
   SJD =      0 
   SJSWS =      0 
   SJSWD =      0 
   SJSWGS =      0 
   SJSWGD =      0 
   MJS2 =  0.125 
   MJD2 =  0.125 
   MJSWS2 =   0.33 
   MJSWD2 =   0.33 
   MJSWGS2 =   0.33 
   MJSWGD2 =   0.33 
   JSS = 0.0001 A/m^2
   JSD = 0.0001 A/m^2
   JSWS =      0 A/m
   JSWD =      0 A/m
   JSWGS =      0 A/m
   JSWGD =      0 A/m
   NJS =      1 
   NJD =      1 
   IJTHSFWD =    0.1 A
   IJTHDFWD =    0.1 A
   IJTHSREV =    0.1 A
   IJTHDREV =    0.1 A
   BVS =     10 V
   BVD =     10 V
   XJBVS =      1 
   XJBVD =      1 
   JTSS =      0 A/m^2
   JTSD =      0 A/m^2
   JTSSWS =      0 A/m
   JTSSWD =      0 A/m
   JTSSWGS =      0 A/m
   JTSSWGD =      0 A/m
   JTWEFF =      0 m
   NJTS =     20 
   NJTSD =     20 
   NJTSSW =     20 
   NJTSSWD =     20 
   NJTSSWG =     20 
   NJTSSWGD =     20 
   VTSS =     10 V
   VTSD =     10 V
   VTSSWS =     10 V
   VTSSWD =     10 V
   VTSSWGS =     10 V
   VTSSWGD =     10 V
   LINTIGEN =      0 m
   NTGEN =      1 
   AIGEN =      0 m^-3V^-1
   BIGEN =      0 m^-3V^-3
   XRCRG1 =     12 
   XRCRG2 =      1 
   NSEG = 5 
   EF =      1 
   EM = 4.1e+07 V/m
   NOIA = 6.25e+39 eV^-1s^1-EFm^-3
   NOIB = 3.125e+24 eV^-1s^1-EFm^-1
   NOIC = 8.75e+07 eV^-1s^1-EFm
   NTNOI =      1 
   TNOM =  300.1 K
   TBGASUB = 0.000702 eV/K
   TBGBSUB =   1108 K
   KT1 =      0 V
   KT1L =      0 Vm
   IIT =   -0.5 
   TII =      0 
   TGIDL = -0.0003 K^-1
   IGT =    2.5 
   TCJ =      0 K^-1
   TCJSW =      0 K^-1
   TCJSWG =      0 K^-1
   TPB =      0 K^-1
   TPBSW =      0 K^-1
   TPBSWG =      0 K^-1
   XTIS =      3 
   XTID =      3 
   XTSS =   0.02 
   XTSD =   0.02 
   XTSSWS =   0.02 
   XTSSWD =   0.02 
   XTSSWGS =   0.02 
   XTSSWGD =   0.02 
   TNJTS =      0 
   TNJTSD =      0 
   TNJTSSW =      0 
   TNJTSSWD =      0 
   TNJTSSWG =      0 
   TNJTSSWGD =      0 
   RTH0 =   0.01 ohm
   CTH0 =  1e-05 F
   WTH0 =      0 m
   LNBODY =      0 
   NNBODY =      0 
   PNBODY =      0 
   LPHIG =      0 
   NPHIG =      0 
   PPHIG =      0 
   LNGATE =      0 
   NNGATE =      0 
   PNGATE =      0 
   LCIT =      0 
   NCIT =      0 
   PCIT =      0 
   LCDSC =      0 
   NCDSC =      0 
   PCDSC =      0 
   LCDSCD =      0 
   NCDSCD =      0 
   PCDSCD =      0 
   LCDSCDR =      0 
   NCDSCDR =      0 
   PCDSCDR =      0 
   LDVT0 =      0 
   NDVT0 =      0 
   PDVT0 =      0 
   LDVT1 =      0 
   NDVT1 =      0 
   PDVT1 =      0 
   LPHIN =      0 
   NPHIN =      0 
   PPHIN =      0 
   LETA0 =      0 
   NETA0 =      0 
   PETA0 =      0 
   LETA0R =      0 
   NETA0R =      0 
   PETA0R =      0 
   LDSUB =      0 
   NDSUB =      0 
   PDSUB =      0 
   LK1RSCE =      0 
   NK1RSCE =      0 
   PK1RSCE =      0 
   LLPE0 =      0 
   NLPE0 =      0 
   PLPE0 =      0 
   LQMFACTOR =      0 
   NQMFACTOR =      0 
   PQMFACTOR =      0 
   LQMTCENIV =      0 
   NQMTCENIV =      0 
   PQMTCENIV =      0 
   LQMTCENCV =      0 
   NQMTCENCV =      0 
   PQMTCENCV =      0 
   LVSAT =      0 
   NVSAT =      0 
   PVSAT =      0 
   LKSATIV =      0 
   NKSATIV =      0 
   PKSATIV =      0 
   LMEXP =      0 
   NMEXP =      0 
   PMEXP =      0 
   LPTWG =      0 
   NPTWG =      0 
   PPTWG =      0 
   LTHETASAT =      0 
   NTHETASAT =      0 
   PTHETASAT =      0 
   LU0 =      0 
   NU0 =      0 
   PU0 =      0 
   LUP =      0 
   NUP =      0 
   PUP =      0 
   LUA =      0 
   NUA =      0 
   PUA =      0 
   LEU =      0 
   NEU =      0 
   PEU =      0 
   LUD =      0 
   NUD =      0 
   PUD =      0 
   LUCS =      0 
   NUCS =      0 
   PUCS =      0 
   LPCLM =      0 
   NPCLM =      0 
   PPCLM =      0 
   LPCLMCV =      0 
   NPCLMCV =      0 
   PPCLMCV =      0 
   LRDSW =      0 
   NRDSW =      0 
   PRDSW =      0 
   LRSW =      0 
   NRSW =      0 
   PRSW =      0 
   LRDW =      0 
   NRDW =      0 
   PRDW =      0 
   LPRWG =      0 
   NPRWG =      0 
   PPRWG =      0 
   LWR =      0 
   NWR =      0 
   PWR =      0 
   LPDIBL1 =      0 
   NPDIBL1 =      0 
   PPDIBL1 =      0 
   LPDIBL2 =      0 
   NPDIBL2 =      0 
   PPDIBL2 =      0 
   LDROUT =      0 
   NDROUT =      0 
   PDROUT =      0 
   LPVAG =      0 
   NPVAG =      0 
   PPVAG =      0 
   LAIGBINV =      0 
   NAIGBINV =      0 
   PAIGBINV =      0 
   LBIGBINV =      0 
   NBIGBINV =      0 
   PBIGBINV =      0 
   LCIGBINV =      0 
   NCIGBINV =      0 
   PCIGBINV =      0 
   LEIGBINV =      0 
   NEIGBINV =      0 
   PEIGBINV =      0 
   LNIGBINV =      0 
   NNIGBINV =      0 
   PNIGBINV =      0 
   LAIGC =      0 
   NAIGC =      0 
   PAIGC =      0 
   LBIGC =      0 
   NBIGC =      0 
   PBIGC =      0 
   LCIGC =      0 
   NCIGC =      0 
   PCIGC =      0 
   LNIGC =      0 
   NNIGC =      0 
   PNIGC =      0 
   LAIGS =      0 
   NAIGS =      0 
   PAIGS =      0 
   LBIGS =      0 
   NBIGS =      0 
   PBIGS =      0 
   LCIGS =      0 
   NCIGS =      0 
   PCIGS =      0 
   LAIGD =      0 
   NAIGD =      0 
   PAIGD =      0 
   LBIGD =      0 
   NBIGD =      0 
   PBIGD =      0 
   LCIGD =      0 
   NCIGD =      0 
   PCIGD =      0 
   LPOXEDGE =      0 
   NPOXEDGE =      0 
   PPOXEDGE =      0 
   LAGIDL =      0 
   NAGIDL =      0 
   PAGIDL =      0 
   LBGIDL =      0 
   NBGIDL =      0 
   PBGIDL =      0 
   LEGIDL =      0 
   NEGIDL =      0 
   PEGIDL =      0 
   LAGISL =      0 
   NAGISL =      0 
   PAGISL =      0 
   LBGISL =      0 
   NBGISL =      0 
   PBGISL =      0 
   LEGISL =      0 
   NEGISL =      0 
   PEGISL =      0 
   LALPHA0 =      0 
   NALPHA0 =      0 
   PALPHA0 =      0 
   LALPHA1 =      0 
   NALPHA1 =      0 
   PALPHA1 =      0 
   LBETA0 =      0 
   NBETA0 =      0 
   PBETA0 =      0 
   LALPHAII =      0 
   NALPHAII =      0 
   PALPHAII =      0 
   LBETAII0 =      0 
   NBETAII0 =      0 
   PBETAII0 =      0 
   LBETAII1 =      0 
   NBETAII1 =      0 
   PBETAII1 =      0 
   LBETAII2 =      0 
   NBETAII2 =      0 
   PBETAII2 =      0 
   LESATII =      0 
   NESATII =      0 
   PESATII =      0 
   LLII =      0 
   NLII =      0 
   PLII =      0 
   LSII0 =      0 
   NSII0 =      0 
   PSII0 =      0 
   LSII1 =      0 
   NSII1 =      0 
   PSII1 =      0 
   LSII2 =      0 
   NSII2 =      0 
   PSII2 =      0 
   LSIID =      0 
   NSIID =      0 
   PSIID =      0 
   LCFS =      0 
   NCFS =      0 
   PCFS =      0 
   LCFD =      0 
   NCFD =      0 
   PCFD =      0 
   LCOVS =      0 
   NCOVS =      0 
   PCOVS =      0 
   LCOVD =      0 
   NCOVD =      0 
   PCOVD =      0 
   LCGSL =      0 
   NCGSL =      0 
   PCGSL =      0 
   LCGDL =      0 
   NCGDL =      0 
   PCGDL =      0 
   LCKAPPAS =      0 
   NCKAPPAS =      0 
   PCKAPPAS =      0 
   LCKAPPAD =      0 
   NCKAPPAD =      0 
   PCKAPPAD =      0 
   LCGBL =      0 
   NCGBL =      0 
   PCGBL =      0 
   LCKAPPAB =      0 
   NCKAPPAB =      0 
   PCKAPPAB =      0 
   LNTGEN =      0 
   NNTGEN =      0 
   PNTGEN =      0 
   LAIGEN =      0 
   NAIGEN =      0 
   PAIGEN =      0 
   LBIGEN =      0 
   NBIGEN =      0 
   PBIGEN =      0 
   LXRCRG1 =      0 
   NXRCRG1 =      0 
   PXRCRG1 =      0 
   LXRCRG2 =      0 
   NXRCRG2 =      0 
   PXRCRG2 =      0 
   LINTNOI =      0 
   NINTNOI =      0 
   PINTNOI =      0 
   LUTE =      0 
   NUTE =      0 
   PUTE =      0 
   LUTL =      0 
   NUTL =      0 
   PUTL =      0 
   LUA1 =      0 
   NUA1 =      0 
   PUA1 =      0 
   LUD1 =      0 
   NUD1 =      0 
   PUD1 =      0 
   LUCSTE =      0 
   NUCSTE =      0 
   PUCSTE =      0 
   LPTWGT =      0 
   NPTWGT =      0 
   PPTWGT =      0 
   LAT =      0 
   NAT =      0 
   PAT =      0 
   LSTTHETASAT =      0 
   NSTTHETASAT =      0 
   PSTTHETASAT =      0 
   LPRT =      0 
   NPRT =      0 
   PPRT =      0 
   LIIT =      0 
   NIIT =      0 
   PIIT =      0 
   LTII =      0 
   NTII =      0 
   PTII =      0 
   LTGIDL =      0 
   NTGIDL =      0 
   PTGIDL =      0 
   LIGT =      0 
   NIGT =      0 
   PIGT =      0 
   L =  2e-08 m
   D =  4e-08 m
   TFIN = 1.2e-08 m
   FPITCH = 4.2e-08 m
   NF = 1 
   NFIN = 1 
   NGCON = 1 
   ASEO =      0 m^2
   ADEO =      0 m^2
   PSEO =      0 m
   PDEO =      0 m
   ASEJ =      0 m^2
   ADEJ =      0 m^2
   PSEJ =      0 m
   PDEJ =      0 m
   CGSP =      0 F
   CGDP =      0 F
   CDSP =      0 F
   NRS =      0 
   NRD =      0 
   LRSD =  2e-08 m
   XL =      0 m
   DELVTRAND =      0 
   U0MULT =      1 
   IDS0MULT =      1 
   Lmin =  1e-08 m
   Lmax =  3e-08 m
   NFINmin = 0 
   NFINmax = 1 
   LVSAT1 =      0 
   NVSAT1 =      0 
   PVSAT1 =      0 
   LETAMOB =      0 
   NETAMOB =      0 
   PETAMOB =      0 
   LPCLMG =      0 
   NPCLMG =      0 
   PPCLMG =      0 
   LVASAT =      0 
   NVASAT =      0 
   PVASAT =      0 
   LAIGBACC =      0 
   NAIGBACC =      0 
   PAIGBACC =      0 
   LBIGBACC =      0 
   NBIGBACC =      0 
   PBIGBACC =      0 
   LCIGBACC =      0 
   NCIGBACC =      0 
   PCIGBACC =      0 
   LNIGBACC =      0 
   NNIGBACC =      0 
   PNIGBACC =      0 
 Model Name: nfet 
 BSIM-MG BULK Model(Level72)
   VERSION = 105.03  
   DEVTYPE = 1 
   BULKMOD = 1  
   COREMOD = 0 
   GEOMOD = 1 
   RDSMOD = 1 
   IGCMOD = 1 
   IGBMOD = 1 
   GIDLMOD = 0 
   IIMOD = 0 
   NQSMOD = 0 
   SHMOD = 0 
   RGATEMOD = 0 
   RGEOMOD = 1 
   CGEOMOD = 2 
   CAPMOD = 0 
   LINT = -1e-09 m
   LL =      0 m^(LLN+1)
   LLN =      1 
   DLC =      0 m
   DLBIN =      0 
   LLC =      0 m^(LLN+1)
   EOT =  1e-09 m
   TOXP = 1.35e-09 m
   EOTBOX = 1.4e-07 m
   HFIN = 2.6e-08 m
   FECH =      1 
   DELTAW =      0 m
   FECHCV =      1 
   DELTAWCV =      0 m
   NBODY =  1e+23 m^-3
   NSD =  3e+26 m^-3
   PHIG =  4.589 eV
   EPSROX =    3.9 
   EPSRSUB =   11.9 
   EASUB =   4.05 eV
   NI0SUB = 1.1e+16 m^-3
   BG0SUB =   1.12 eV
   NC0SUB = 2.86e+25 m^-3
   NGATE =      0 m^-3
   CIT = 1.3e-05 F/m^2
   CDSC =  0.021 F/m^2
   CDSCD =  0.007 F/m^2
   CDSCDR =  0.007 
   DVT0 =   0.01 
   DVT1 =   0.69 
   PHIN =   0.05 V
   ETA0 = 0.7358 
   ETA0R = 0.7358 
   DSUB =    0.9 
   K1RSCE =      0 V^1/2
   LPE0 =  5e-09 m
   DVTSHIFT =      0 
   QMFACTOR =      0 
   QMTCENIV =      0 
   QMTCENCV =      0 
   AQMTCEN =      0 
   BQMTCEN = 1.2e-08 
   ETAQM =   0.54 
   QM0 = 0.001143 
   PQM =   0.66 
   QM0ACC =  0.001 
   PQMACC =   0.66 
   VSAT =  9e+04 
   AVSAT =      0 
   BVSAT =  1e-07 
   VSAT1 =  9e+04 
   AVSAT1 =      0 
   BVSAT1 =  1e-07 
   DELTAVSAT =      1 
   KSATIV =    0.8 
   MEXP =      3 
   AMEXP =      0 
   BMEXP =      1 
   PTWG =      0 
   APTWG =      0 
   BPTWG =  1e-07 
   AT = -0.00156 
   TMEXP =      0 
   PTWGT =  0.004 
   U0 = 0.0448 
   ETAMOB =      2 
   UP =      0 
   LPA =      1 
   UA =    0.3 
   AUA =      0 
   BUA =  1e-07 
   EU =    1.8 
   AEU =      0 
   BEU =  1e-07 
   UD =      0 
   AUD =      0 
   BUD =  5e-08 
   UCS =      0 
   UTE =      0 
   UTL = -0.0015 
   UA1 = 0.001032 
   UD1 =      0 
   UCSTE = -0.00478 
   RDSWMIN =      0 
   RDSW =    100 
   ARDSW =      0 
   BRDSW =  1e-07 
   RSWMIN =      0 
   RSW =      0 
   ARSW =      0 
   BRSW =  1e-07 
   RDWMIN =      0 
   RDW =      0 
   ARDW =      0 
   BRDW =  1e-07 
   PRWG =      0 
   WR =      1 
   PRT =  0.001 
   PDIBL1 =    1.3 
   PDIBL2 = 0.0002 
   DROUT =   1.06 
   PVAG =      1 
   PCLM =    0.2 
   APCLM =      0 
   BPCLM =  1e-07 
   PCLMG =      0 
   VASAT =    0.6 
   PCLMCV =  0.013 
   PCLMGCV =      0 
   VASATCV =    0.2 
   RGEXT =      0 ohm
   RGFIN =  0.001 ohm
   RSHS =      0 ohm
   RSHD =      0 ohm
   HEPI = 9.5e-09 m
   TSILI =  9e-09 m
   RHOC = 1.5e-12 ohm/m^2
   RHORSD =      1 ohm/m
   RHOEXT =      1 ohm/m
   CRATIO =    0.5 
   DELTAPRSD =      0 m
   SDTERM = 0 
   LSP =  4e-09 m
   LDG =  3e-09 m
   EPSRSP =    3.9 
   TGATE =  9e-09 m
   TMASK =      0 m
   ASILIEND =      0 m^2
   ARSDEND =      0 m^2
   PRSDEND =      0 m
   NSDE =  3e+25 m^-3
   RGEOA =      1 
   RGEOB =      0 m^-1
   RGEOC =      0 m^-1
   RGEOD =      0 m^-1
   RGEOE =      0 m^-1
   CGEOA =      1 
   CGEOB =      0 m^-1
   CGEOC =      0 m^-1
   CGEOD =      0 m^-1
   CGEOE =      1 
   AIGBINV = 0.0111 (Fs^2/g)^0.5m^-1
   BIGBINV =   0.03 (Fs^2/g)^0.5m^-1
   CIGBINV =  0.006 V^-1
   EIGBINV =    1.1 V
   NIGBINV =    1.2 
   AIGBACC = 0.0149 
   BIGBACC = 0.000949 
   CIGBACC =  0.075 
   NIGBACC =      3 
   AIGC = 0.0136 (Fs^2/g)^0.5m^-1
   BIGC = 0.00171 (Fs^2/g)^0.5m^-1V^-1
   CIGC =  0.075 V^-1
   NIGC =      1 
   DLCIGS =      0 m
   AIGS = 0.0136 (Fs^2/g)^0.5m^-1
   BIGS = 0.00171 (Fs^2/g)^0.5m^-1V^-1
   CIGS =  0.075 V^-1
   DLCIGD =      0 m
   AIGD = 0.0136 (Fs^2/g)^0.5m^-1
   BIGD = 0.00171 (Fs^2/g)^0.5m^-1V^-1
   CIGD =  0.075 V^-1
   POXEDGE =      1 
   AGIDL = 5.729e-12 ohm^-1
   BGIDL =  3e+08 V/m
   EGIDL =    0.1 V
   AGISL = 5.729e-12 ohm^-1
   BGISL =  3e+08 V/m
   EGISL =    0.1 V
   ALPHA0 =      0 mV^-1
   ALPHA1 =      0 V^-1
   BETA0 =     30 V^-1
   ALPHAII =      0 
   BETAII0 =      0 V^-1
   BETAII1 =      0 
   BETAII2 =    0.1 V
   ESATII =  1e+07 V/m
   LII =  5e-10 V/m
   SII0 =    0.5 V^-1
   SII1 =    0.1 
   SII2 =      0 V
   SIID =      0 V
   EOTACC =  1e-09 m
   DELVFBACC =      0 V
   CFS = 2.56e-11 F/m
   CFD = 2.65e-11 F/m
   COVS = 2.5e-11 F/m
   COVD = 2.5e-11 F/m
   CGSO =      0 F/m
   CGDO =      0 F/m
   CGSL =      0 F/m
   CGDL =      0 F/m
   CKAPPAS =    0.6 V
   CKAPPAD =    0.6 V
   CGBO =      0 F/m
   CGBL =      0 F/m
   CKAPPAB =    0.6 V
   CSDESW =      0 F/m
   CJS = 0.0005 F/m^2
   CJD = 0.0005 F/m^2
   CJSWS =  5e-10 F/m
   CJSWD =  5e-10 F/m
   CJSWGS =      0 F/m
   CJSWGD =      0 F/m
   PBS =      1 V
   PBD =      1 V
   PBSWS =      1 V
   PBSWD =      1 V
   PBSWGS =      1 V
   PBSWGD =      1 V
   MJS, =    0.5 
   MJD =    0.5 
   MJSWS =   0.33 
   MJSWD =   0.33 
   MJSWGS =   0.33 
   MJSWGD =   0.33 
   SJS =      0 
   SJD =      0 
   SJSWS =      0 
   SJSWD =      0 
   SJSWGS =      0 
   SJSWGD =      0 
   MJS2 =  0.125 
   MJD2 =  0.125 
   MJSWS2 =   0.33 
   MJSWD2 =   0.33 
   MJSWGS2 =   0.33 
   MJSWGD2 =   0.33 
   JSS = 0.0001 A/m^2
   JSD = 0.0001 A/m^2
   JSWS =      0 A/m
   JSWD =      0 A/m
   JSWGS =      0 A/m
   JSWGD =      0 A/m
   NJS =      1 
   NJD =      1 
   IJTHSFWD =    0.1 A
   IJTHDFWD =    0.1 A
   IJTHSREV =    0.1 A
   IJTHDREV =    0.1 A
   BVS =     10 V
   BVD =     10 V
   XJBVS =      1 
   XJBVD =      1 
   JTSS =      0 A/m^2
   JTSD =      0 A/m^2
   JTSSWS =      0 A/m
   JTSSWD =      0 A/m
   JTSSWGS =      0 A/m
   JTSSWGD =      0 A/m
   JTWEFF =      0 m
   NJTS =     20 
   NJTSD =     20 
   NJTSSW =     20 
   NJTSSWD =     20 
   NJTSSWG =     20 
   NJTSSWGD =     20 
   VTSS =     10 V
   VTSD =     10 V
   VTSSWS =     10 V
   VTSSWD =     10 V
   VTSSWGS =     10 V
   VTSSWGD =     10 V
   LINTIGEN =      0 m
   NTGEN =      1 
   AIGEN =      0 m^-3V^-1
   BIGEN =      0 m^-3V^-3
   XRCRG1 =     12 
   XRCRG2 =      1 
   NSEG = 5 
   EF =      1 
   EM = 4.1e+07 V/m
   NOIA = 6.25e+39 eV^-1s^1-EFm^-3
   NOIB = 3.125e+24 eV^-1s^1-EFm^-1
   NOIC = 8.75e+07 eV^-1s^1-EFm
   NTNOI =      1 
   TNOM =  300.1 K
   TBGASUB = 0.000702 eV/K
   TBGBSUB =   1108 K
   KT1 =      0 V
   KT1L =      0 Vm
   IIT =   -0.5 
   TII =      0 
   TGIDL = -0.0003 K^-1
   IGT =    2.5 
   TCJ =      0 K^-1
   TCJSW =      0 K^-1
   TCJSWG =      0 K^-1
   TPB =      0 K^-1
   TPBSW =      0 K^-1
   TPBSWG =      0 K^-1
   XTIS =      3 
   XTID =      3 
   XTSS =   0.02 
   XTSD =   0.02 
   XTSSWS =   0.02 
   XTSSWD =   0.02 
   XTSSWGS =   0.02 
   XTSSWGD =   0.02 
   TNJTS =      0 
   TNJTSD =      0 
   TNJTSSW =      0 
   TNJTSSWD =      0 
   TNJTSSWG =      0 
   TNJTSSWGD =      0 
   RTH0 =   0.01 ohm
   CTH0 =  1e-05 F
   WTH0 =      0 m
   LNBODY =      0 
   NNBODY =      0 
   PNBODY =      0 
   LPHIG =      0 
   NPHIG =      0 
   PPHIG =      0 
   LNGATE =      0 
   NNGATE =      0 
   PNGATE =      0 
   LCIT =      0 
   NCIT =      0 
   PCIT =      0 
   LCDSC =      0 
   NCDSC =      0 
   PCDSC =      0 
   LCDSCD =      0 
   NCDSCD =      0 
   PCDSCD =      0 
   LCDSCDR =      0 
   NCDSCDR =      0 
   PCDSCDR =      0 
   LDVT0 =      0 
   NDVT0 =      0 
   PDVT0 =      0 
   LDVT1 =      0 
   NDVT1 =      0 
   PDVT1 =      0 
   LPHIN =      0 
   NPHIN =      0 
   PPHIN =      0 
   LETA0 =      0 
   NETA0 =      0 
   PETA0 =      0 
   LETA0R =      0 
   NETA0R =      0 
   PETA0R =      0 
   LDSUB =      0 
   NDSUB =      0 
   PDSUB =      0 
   LK1RSCE =      0 
   NK1RSCE =      0 
   PK1RSCE =      0 
   LLPE0 =      0 
   NLPE0 =      0 
   PLPE0 =      0 
   LQMFACTOR =      0 
   NQMFACTOR =      0 
   PQMFACTOR =      0 
   LQMTCENIV =      0 
   NQMTCENIV =      0 
   PQMTCENIV =      0 
   LQMTCENCV =      0 
   NQMTCENCV =      0 
   PQMTCENCV =      0 
   LVSAT =      0 
   NVSAT =      0 
   PVSAT =      0 
   LKSATIV =      0 
   NKSATIV =      0 
   PKSATIV =      0 
   LMEXP =      0 
   NMEXP =      0 
   PMEXP =      0 
   LPTWG =      0 
   NPTWG =      0 
   PPTWG =      0 
   LTHETASAT =      0 
   NTHETASAT =      0 
   PTHETASAT =      0 
   LU0 =      0 
   NU0 =      0 
   PU0 =      0 
   LUP =      0 
   NUP =      0 
   PUP =      0 
   LUA =      0 
   NUA =      0 
   PUA =      0 
   LEU =      0 
   NEU =      0 
   PEU =      0 
   LUD =      0 
   NUD =      0 
   PUD =      0 
   LUCS =      0 
   NUCS =      0 
   PUCS =      0 
   LPCLM =      0 
   NPCLM =      0 
   PPCLM =      0 
   LPCLMCV =      0 
   NPCLMCV =      0 
   PPCLMCV =      0 
   LRDSW =      0 
   NRDSW =      0 
   PRDSW =      0 
   LRSW =      0 
   NRSW =      0 
   PRSW =      0 
   LRDW =      0 
   NRDW =      0 
   PRDW =      0 
   LPRWG =      0 
   NPRWG =      0 
   PPRWG =      0 
   LWR =      0 
   NWR =      0 
   PWR =      0 
   LPDIBL1 =      0 
   NPDIBL1 =      0 
   PPDIBL1 =      0 
   LPDIBL2 =      0 
   NPDIBL2 =      0 
   PPDIBL2 =      0 
   LDROUT =      0 
   NDROUT =      0 
   PDROUT =      0 
   LPVAG =      0 
   NPVAG =      0 
   PPVAG =      0 
   LAIGBINV =      0 
   NAIGBINV =      0 
   PAIGBINV =      0 
   LBIGBINV =      0 
   NBIGBINV =      0 
   PBIGBINV =      0 
   LCIGBINV =      0 
   NCIGBINV =      0 
   PCIGBINV =      0 
   LEIGBINV =      0 
   NEIGBINV =      0 
   PEIGBINV =      0 
   LNIGBINV =      0 
   NNIGBINV =      0 
   PNIGBINV =      0 
   LAIGC =      0 
   NAIGC =      0 
   PAIGC =      0 
   LBIGC =      0 
   NBIGC =      0 
   PBIGC =      0 
   LCIGC =      0 
   NCIGC =      0 
   PCIGC =      0 
   LNIGC =      0 
   NNIGC =      0 
   PNIGC =      0 
   LAIGS =      0 
   NAIGS =      0 
   PAIGS =      0 
   LBIGS =      0 
   NBIGS =      0 
   PBIGS =      0 
   LCIGS =      0 
   NCIGS =      0 
   PCIGS =      0 
   LAIGD =      0 
   NAIGD =      0 
   PAIGD =      0 
   LBIGD =      0 
   NBIGD =      0 
   PBIGD =      0 
   LCIGD =      0 
   NCIGD =      0 
   PCIGD =      0 
   LPOXEDGE =      0 
   NPOXEDGE =      0 
   PPOXEDGE =      0 
   LAGIDL =      0 
   NAGIDL =      0 
   PAGIDL =      0 
   LBGIDL =      0 
   NBGIDL =      0 
   PBGIDL =      0 
   LEGIDL =      0 
   NEGIDL =      0 
   PEGIDL =      0 
   LAGISL =      0 
   NAGISL =      0 
   PAGISL =      0 
   LBGISL =      0 
   NBGISL =      0 
   PBGISL =      0 
   LEGISL =      0 
   NEGISL =      0 
   PEGISL =      0 
   LALPHA0 =      0 
   NALPHA0 =      0 
   PALPHA0 =      0 
   LALPHA1 =      0 
   NALPHA1 =      0 
   PALPHA1 =      0 
   LBETA0 =      0 
   NBETA0 =      0 
   PBETA0 =      0 
   LALPHAII =      0 
   NALPHAII =      0 
   PALPHAII =      0 
   LBETAII0 =      0 
   NBETAII0 =      0 
   PBETAII0 =      0 
   LBETAII1 =      0 
   NBETAII1 =      0 
   PBETAII1 =      0 
   LBETAII2 =      0 
   NBETAII2 =      0 
   PBETAII2 =      0 
   LESATII =      0 
   NESATII =      0 
   PESATII =      0 
   LLII =      0 
   NLII =      0 
   PLII =      0 
   LSII0 =      0 
   NSII0 =      0 
   PSII0 =      0 
   LSII1 =      0 
   NSII1 =      0 
   PSII1 =      0 
   LSII2 =      0 
   NSII2 =      0 
   PSII2 =      0 
   LSIID =      0 
   NSIID =      0 
   PSIID =      0 
   LCFS =      0 
   NCFS =      0 
   PCFS =      0 
   LCFD =      0 
   NCFD =      0 
   PCFD =      0 
   LCOVS =      0 
   NCOVS =      0 
   PCOVS =      0 
   LCOVD =      0 
   NCOVD =      0 
   PCOVD =      0 
   LCGSL =      0 
   NCGSL =      0 
   PCGSL =      0 
   LCGDL =      0 
   NCGDL =      0 
   PCGDL =      0 
   LCKAPPAS =      0 
   NCKAPPAS =      0 
   PCKAPPAS =      0 
   LCKAPPAD =      0 
   NCKAPPAD =      0 
   PCKAPPAD =      0 
   LCGBL =      0 
   NCGBL =      0 
   PCGBL =      0 
   LCKAPPAB =      0 
   NCKAPPAB =      0 
   PCKAPPAB =      0 
   LNTGEN =      0 
   NNTGEN =      0 
   PNTGEN =      0 
   LAIGEN =      0 
   NAIGEN =      0 
   PAIGEN =      0 
   LBIGEN =      0 
   NBIGEN =      0 
   PBIGEN =      0 
   LXRCRG1 =      0 
   NXRCRG1 =      0 
   PXRCRG1 =      0 
   LXRCRG2 =      0 
   NXRCRG2 =      0 
   PXRCRG2 =      0 
   LINTNOI =      0 
   NINTNOI =      0 
   PINTNOI =      0 
   LUTE =      0 
   NUTE =      0 
   PUTE =      0 
   LUTL =      0 
   NUTL =      0 
   PUTL =      0 
   LUA1 =      0 
   NUA1 =      0 
   PUA1 =      0 
   LUD1 =      0 
   NUD1 =      0 
   PUD1 =      0 
   LUCSTE =      0 
   NUCSTE =      0 
   PUCSTE =      0 
   LPTWGT =      0 
   NPTWGT =      0 
   PPTWGT =      0 
   LAT =      0 
   NAT =      0 
   PAT =      0 
   LSTTHETASAT =      0 
   NSTTHETASAT =      0 
   PSTTHETASAT =      0 
   LPRT =      0 
   NPRT =      0 
   PPRT =      0 
   LIIT =      0 
   NIIT =      0 
   PIIT =      0 
   LTII =      0 
   NTII =      0 
   PTII =      0 
   LTGIDL =      0 
   NTGIDL =      0 
   PTGIDL =      0 
   LIGT =      0 
   NIGT =      0 
   PIGT =      0 
   L =  2e-08 m
   D =  4e-08 m
   TFIN = 1.2e-08 m
   FPITCH = 4.2e-08 m
   NF = 1 
   NFIN = 1 
   NGCON = 1 
   ASEO =      0 m^2
   ADEO =      0 m^2
   PSEO =      0 m
   PDEO =      0 m
   ASEJ =      0 m^2
   ADEJ =      0 m^2
   PSEJ =      0 m
   PDEJ =      0 m
   CGSP =      0 F
   CGDP =      0 F
   CDSP =      0 F
   NRS =      0 
   NRD =      0 
   LRSD =  2e-08 m
   XL =      0 m
   DELVTRAND =      0 
   U0MULT =      1 
   IDS0MULT =      1 
   Lmin =  1e-08 m
   Lmax =  3e-08 m
   NFINmin = 0 
   NFINmax = 1 
   LVSAT1 =      0 
   NVSAT1 =      0 
   PVSAT1 =      0 
   LETAMOB =      0 
   NETAMOB =      0 
   PETAMOB =      0 
   LPCLMG =      0 
   NPCLMG =      0 
   PPCLMG =      0 
   LVASAT =      0 
   NVASAT =      0 
   PVASAT =      0 
   LAIGBACC =      0 
   NAIGBACC =      0 
   PAIGBACC =      0 
   LBIGBACC =      0 
   NBIGBACC =      0 
   PBIGBACC =      0 
   LCIGBACC =      0 
   NCIGBACC =      0 
   PCIGBACC =      0 
   LNIGBACC =      0 
   NNIGBACC =      0 
   PNIGBACC =      0 
  **info** (ptm16lstp.sp:15) DC voltage reset to initial transient source value              in source        0:vin_0               new dc=  0.8500D+00
  
      
 **info** set option symb=1 internally to help for convergence.
 *****************************************************************
 ******  option summary
 ******
 runlvl  = 3         bypass  = 2         
  Opening plot unit= 15
 file=ptm16lstp.pa0                                                            

1****** HSPICE -- F-2011.09-SP2 64-BIT (Feb 27 2012) linux ******               
 ******  
 $ netlist of inverter

  ******  operating point information tnom=  25.000 temp=  25.000 *****
 ***** operating point status is voltage   simulation time is   0.000e+00
     node    =voltage       node    =voltage       node    =voltage

 + 0:inb_0   = 8.500e-01  0:outb_00 = 5.757e-07  0:outb_01 = 5.757e-07
 + 0:outb_02 = 5.757e-07  0:outb_03 = 5.757e-07  0:outin_00= 5.757e-07
 + 0:outin_10= 8.500e-01  0:vdd     = 8.500e-01

 ******  
 $ netlist of inverter

  ******  transient analysis tnom=  25.000 temp=  25.000 *****
 model_uut_peak_power00= 3.6427e-05    at= 5.0769e-12
             from= 0.0000e+00    to= 2.0000e-09
 model_uut_avg_power00= 2.8036e-07  from= 0.0000e+00     to= 2.0000e-09
 uut_peak_power= 3.6427e-05    at= 5.0769e-12
             from= 0.0000e+00    to= 2.0000e-09
 uut_avg_power= 2.8036e-07  from= 0.0000e+00     to= 2.0000e-09
 source_peak_power= 5.2506e-05    at= 1.0021e-09
             from= 0.0000e+00    to= 2.0000e-09
 source_avg_power= 4.9248e-07  from= 0.0000e+00     to= 2.0000e-09
 trf_delay_001= 6.9644e-12  targ= 9.7184e-12   trig= 2.7540e-12
 tfr_delay_001= 7.5311e-12  targ= 1.0115e-09   trig= 1.0040e-09
x

        time    voltage      voltage    
                 outin_00     outin_10  
  0.0000e+00    5.757e-07    8.500e-01  
  1.0000e-12   -4.045e-02    8.463e-01  
  2.0000e-12    2.338e-01    8.747e-01  
  3.0000e-12    4.844e-01    8.865e-01  
  4.0000e-12    6.596e-01    8.578e-01  
  5.0000e-12    7.828e-01    8.082e-01  
  6.0000e-12    8.128e-01    7.267e-01  
  7.0000e-12    8.241e-01    6.422e-01  
  8.0000e-12    8.268e-01    5.569e-01  
  9.0000e-12    8.283e-01    4.779e-01  
  1.0000e-11    8.303e-01    4.043e-01  
  1.1000e-11    8.353e-01    3.680e-01  
  1.2000e-11    8.404e-01    3.316e-01  
  1.3000e-11    8.433e-01    3.126e-01  
  1.4000e-11    8.453e-01    2.943e-01  
  1.5000e-11    8.424e-01    2.577e-01  
  1.6000e-11    8.394e-01    2.189e-01  
  1.7000e-11    8.353e-01    1.610e-01  
  1.8000e-11    8.345e-01    1.147e-01  
  1.9000e-11    8.365e-01    7.883e-02  
  2.0000e-11    8.388e-01    4.652e-02  
  2.1000e-11    8.428e-01    3.341e-02  
  2.2000e-11    8.455e-01    2.302e-02  
  2.3000e-11    8.466e-01    1.617e-02  
  2.4000e-11    8.476e-01    9.323e-03  
  2.5000e-11    8.485e-01    5.249e-03  
  2.6000e-11    8.491e-01    4.166e-03  
  2.7000e-11    8.497e-01    3.083e-03  
  2.8000e-11    8.499e-01    2.220e-03  
  2.9000e-11    8.498e-01    1.454e-03  
  3.0000e-11    8.498e-01    6.882e-04  
  3.1000e-11    8.497e-01   -7.740e-05  
  3.2000e-11    8.497e-01   -4.491e-04  
  3.3000e-11    8.498e-01   -2.170e-04  
  3.4000e-11    8.499e-01    1.512e-05  
  3.5000e-11    8.501e-01    2.472e-04  
  3.6000e-11    8.502e-01    4.793e-04  
  3.7000e-11    8.502e-01    6.142e-04  
  3.8000e-11    8.502e-01    4.485e-04  
  3.9000e-11    8.501e-01    2.828e-04  
  4.0000e-11    8.500e-01    1.171e-04  
  4.1000e-11    8.500e-01   -4.865e-05  
  4.2000e-11    8.499e-01   -2.144e-04  
  4.3000e-11    8.498e-01   -3.801e-04  
  4.4000e-11    8.498e-01   -5.458e-04  
  4.5000e-11    8.498e-01   -5.530e-04  
  4.6000e-11    8.498e-01   -4.333e-04  
  4.7000e-11    8.499e-01   -3.135e-04  
  4.8000e-11    8.499e-01   -1.937e-04  
  4.9000e-11    8.500e-01   -7.394e-05  
  5.0000e-11    8.500e-01    4.584e-05  
  5.1000e-11    8.501e-01    1.656e-04  
  5.2000e-11    8.501e-01    2.854e-04  
  5.3000e-11    8.502e-01    4.052e-04  
  5.4000e-11    8.502e-01    5.249e-04  
  5.5000e-11    8.502e-01    5.591e-04  
  5.6000e-11    8.502e-01    4.687e-04  
  5.7000e-11    8.501e-01    3.784e-04  
  5.8000e-11    8.501e-01    2.881e-04  
  5.9000e-11    8.501e-01    1.978e-04  
  6.0000e-11    8.500e-01    1.074e-04  
  6.1000e-11    8.500e-01    1.711e-05  
  6.2000e-11    8.500e-01   -7.322e-05  
  6.3000e-11    8.499e-01   -1.635e-04  
  6.4000e-11    8.499e-01   -2.539e-04  
  6.5000e-11    8.499e-01   -3.442e-04  
  6.6000e-11    8.498e-01   -4.345e-04  
  6.7000e-11    8.498e-01   -5.249e-04  
  6.8000e-11    8.498e-01   -5.467e-04  
  6.9000e-11    8.498e-01   -4.789e-04  
  7.0000e-11    8.498e-01   -4.112e-04  
  7.1000e-11    8.499e-01   -3.434e-04  
  7.2000e-11    8.499e-01   -2.756e-04  
  7.3000e-11    8.499e-01   -2.079e-04  
  7.4000e-11    8.499e-01   -1.401e-04  
  7.5000e-11    8.500e-01   -7.232e-05  
  7.6000e-11    8.500e-01   -4.548e-06  
  7.7000e-11    8.500e-01    6.322e-05  
  7.8000e-11    8.501e-01    1.310e-04  
  7.9000e-11    8.501e-01    1.988e-04  
  8.0000e-11    8.501e-01    2.665e-04  
  8.1000e-11    8.501e-01    3.343e-04  
  8.2000e-11    8.502e-01    4.021e-04  
  8.3000e-11    8.502e-01    4.698e-04  
  8.4000e-11    8.502e-01    5.376e-04  
  8.5000e-11    8.502e-01    5.294e-04  
  8.6000e-11    8.502e-01    4.751e-04  
  8.7000e-11    8.502e-01    4.207e-04  
  8.8000e-11    8.501e-01    3.664e-04  
  8.9000e-11    8.501e-01    3.120e-04  
  9.0000e-11    8.501e-01    2.577e-04  
  9.1000e-11    8.501e-01    2.034e-04  
  9.2000e-11    8.501e-01    1.490e-04  
  9.3000e-11    8.500e-01    9.468e-05  
  9.4000e-11    8.500e-01    4.034e-05  
  9.5000e-11    8.500e-01   -1.400e-05  
  9.6000e-11    8.500e-01   -6.834e-05  
  9.7000e-11    8.500e-01   -1.227e-04  
  9.8000e-11    8.499e-01   -1.770e-04  
  9.9000e-11    8.499e-01   -2.314e-04  
  1.0000e-10    8.499e-01   -2.857e-04  
  1.0100e-10    8.499e-01   -3.401e-04  
  1.0200e-10    8.498e-01   -3.944e-04  
  1.0300e-10    8.498e-01   -4.487e-04  
  1.0400e-10    8.498e-01   -5.031e-04  
  1.0500e-10    8.498e-01   -5.455e-04  
  1.0600e-10    8.498e-01   -5.015e-04  
  1.0700e-10    8.498e-01   -4.574e-04  
  1.0800e-10    8.498e-01   -4.134e-04  
  1.0900e-10    8.499e-01   -3.693e-04  
  1.1000e-10    8.499e-01   -3.253e-04  
  1.1100e-10    8.499e-01   -2.812e-04  
  1.1200e-10    8.499e-01   -2.371e-04  
  1.1300e-10    8.499e-01   -1.931e-04  
  1.1400e-10    8.499e-01   -1.490e-04  
  1.1500e-10    8.500e-01   -1.050e-04  
  1.1600e-10    8.500e-01   -6.091e-05  
  1.1700e-10    8.500e-01   -1.685e-05  
  1.1800e-10    8.500e-01    2.720e-05  
  1.1900e-10    8.500e-01    7.126e-05  
  1.2000e-10    8.500e-01    1.153e-04  
  1.2100e-10    8.501e-01    1.594e-04  
  1.2200e-10    8.501e-01    2.034e-04  
  1.2300e-10    8.501e-01    2.475e-04  
  1.2400e-10    8.501e-01    2.915e-04  
  1.2500e-10    8.501e-01    3.356e-04  
  1.2600e-10    8.501e-01    3.797e-04  
  1.2700e-10    8.502e-01    4.237e-04  
  1.2800e-10    8.502e-01    4.678e-04  
  1.2900e-10    8.502e-01    5.118e-04  
  1.3000e-10    8.502e-01    5.321e-04  
  1.3100e-10    8.502e-01    4.954e-04  
  1.3200e-10    8.502e-01    4.586e-04  
  1.3300e-10    8.502e-01    4.218e-04  
  1.3400e-10    8.502e-01    3.850e-04  
  1.3500e-10    8.501e-01    3.482e-04  
  1.3600e-10    8.501e-01    3.114e-04  
  1.3700e-10    8.501e-01    2.747e-04  
  1.3800e-10    8.501e-01    2.379e-04  
  1.3900e-10    8.501e-01    2.011e-04  
  1.4000e-10    8.501e-01    1.643e-04  
  1.4100e-10    8.500e-01    1.275e-04  
  1.4200e-10    8.500e-01    9.075e-05  
  1.4300e-10    8.500e-01    5.397e-05  
  1.4400e-10    8.500e-01    1.719e-05  
  1.4500e-10    8.500e-01   -1.960e-05  
  1.4600e-10    8.500e-01   -5.638e-05  
  1.4700e-10    8.500e-01   -9.316e-05  
  1.4800e-10    8.499e-01   -1.299e-04  
  1.4900e-10    8.499e-01   -1.667e-04  
  1.5000e-10    8.499e-01   -2.035e-04  
  1.5100e-10    8.499e-01   -2.403e-04  
  1.5200e-10    8.499e-01   -2.771e-04  
  1.5300e-10    8.499e-01   -3.139e-04  
  1.5400e-10    8.499e-01   -3.506e-04  
  1.5500e-10    8.498e-01   -3.874e-04  
  1.5600e-10    8.498e-01   -4.242e-04  
  1.5700e-10    8.498e-01   -4.610e-04  
  1.5800e-10    8.498e-01   -4.978e-04  
  1.5900e-10    8.498e-01   -5.339e-04  
  1.6000e-10    8.498e-01   -5.025e-04  
  1.6100e-10    8.498e-01   -4.710e-04  
  1.6200e-10    8.498e-01   -4.395e-04  
  1.6300e-10    8.498e-01   -4.081e-04  
  1.6400e-10    8.499e-01   -3.766e-04  
  1.6500e-10    8.499e-01   -3.451e-04  
  1.6600e-10    8.499e-01   -3.136e-04  
  1.6700e-10    8.499e-01   -2.822e-04  
  1.6800e-10    8.499e-01   -2.507e-04  
  1.6900e-10    8.499e-01   -2.192e-04  
  1.7000e-10    8.499e-01   -1.877e-04  
  1.7100e-10    8.499e-01   -1.563e-04  
  1.7200e-10    8.500e-01   -1.248e-04  
  1.7300e-10    8.500e-01   -9.332e-05  
  1.7400e-10    8.500e-01   -6.185e-05  
  1.7500e-10    8.500e-01   -3.038e-05  
  1.7600e-10    8.500e-01    1.095e-06  
  1.7700e-10    8.500e-01    3.257e-05  
  1.7800e-10    8.500e-01    6.404e-05  
  1.7900e-10    8.500e-01    9.551e-05  
  1.8000e-10    8.500e-01    1.270e-04  
  1.8100e-10    8.501e-01    1.585e-04  
  1.8200e-10    8.501e-01    1.899e-04  
  1.8300e-10    8.501e-01    2.214e-04  
  1.8400e-10    8.501e-01    2.529e-04  
  1.8500e-10    8.501e-01    2.843e-04  
  1.8600e-10    8.501e-01    3.158e-04  
  1.8700e-10    8.501e-01    3.473e-04  
  1.8800e-10    8.501e-01    3.788e-04  
  1.8900e-10    8.502e-01    4.102e-04  
  1.9000e-10    8.502e-01    4.417e-04  
  1.9100e-10    8.502e-01    4.732e-04  
  1.9200e-10    8.502e-01    5.047e-04  
  1.9300e-10    8.502e-01    5.226e-04  
  1.9400e-10    8.502e-01    4.953e-04  
  1.9500e-10    8.502e-01    4.679e-04  
  1.9600e-10    8.502e-01    4.405e-04  
  1.9700e-10    8.502e-01    4.131e-04  
  1.9800e-10    8.502e-01    3.858e-04  
  1.9900e-10    8.501e-01    3.584e-04  
  2.0000e-10    8.501e-01    3.310e-04  
  2.0100e-10    8.501e-01    3.037e-04  
  2.0200e-10    8.501e-01    2.763e-04  
  2.0300e-10    8.501e-01    2.489e-04  
  2.0400e-10    8.501e-01    2.216e-04  
  2.0500e-10    8.501e-01    1.942e-04  
  2.0600e-10    8.501e-01    1.668e-04  
  2.0700e-10    8.501e-01    1.394e-04  
  2.0800e-10    8.500e-01    1.121e-04  
  2.0900e-10    8.500e-01    8.470e-05  
  2.1000e-10    8.500e-01    5.733e-05  
  2.1100e-10    8.500e-01    2.996e-05  
  2.1200e-10    8.500e-01    2.586e-06  
  2.1300e-10    8.500e-01   -2.478e-05  
  2.1400e-10    8.500e-01   -5.215e-05  
  2.1500e-10    8.500e-01   -7.953e-05  
  2.1600e-10    8.500e-01   -1.069e-04  
  2.1700e-10    8.499e-01   -1.343e-04  
  2.1800e-10    8.499e-01   -1.616e-04  
  2.1900e-10    8.499e-01   -1.890e-04  
  2.2000e-10    8.499e-01   -2.164e-04  
  2.2100e-10    8.499e-01   -2.437e-04  
  2.2200e-10    8.499e-01   -2.711e-04  
  2.2300e-10    8.499e-01   -2.985e-04  
  2.2400e-10    8.499e-01   -3.259e-04  
  2.2500e-10    8.499e-01   -3.532e-04  
  2.2600e-10    8.498e-01   -3.806e-04  
  2.2700e-10    8.498e-01   -4.080e-04  
  2.2800e-10    8.498e-01   -4.353e-04  
  2.2900e-10    8.498e-01   -4.627e-04  
  2.3000e-10    8.498e-01   -4.901e-04  
  2.3100e-10    8.498e-01   -5.175e-04  
  2.3200e-10    8.498e-01   -5.020e-04  
  2.3300e-10    8.498e-01   -4.777e-04  
  2.3400e-10    8.498e-01   -4.535e-04  
  2.3500e-10    8.498e-01   -4.292e-04  
  2.3600e-10    8.498e-01   -4.049e-04  
  2.3700e-10    8.498e-01   -3.807e-04  
  2.3800e-10    8.499e-01   -3.564e-04  
  2.3900e-10    8.499e-01   -3.321e-04  
  2.4000e-10    8.499e-01   -3.078e-04  
  2.4100e-10    8.499e-01   -2.836e-04  
  2.4200e-10    8.499e-01   -2.593e-04  
  2.4300e-10    8.499e-01   -2.350e-04  
  2.4400e-10    8.499e-01   -2.108e-04  
  2.4500e-10    8.499e-01   -1.865e-04  
  2.4600e-10    8.499e-01   -1.622e-04  
  2.4700e-10    8.499e-01   -1.379e-04  
  2.4800e-10    8.500e-01   -1.137e-04  
  2.4900e-10    8.500e-01   -8.940e-05  
  2.5000e-10    8.500e-01   -6.513e-05  
  2.5100e-10    8.500e-01   -4.086e-05  
  2.5200e-10    8.500e-01   -1.659e-05  
  2.5300e-10    8.500e-01    7.684e-06  
  2.5400e-10    8.500e-01    3.196e-05  
  2.5500e-10    8.500e-01    5.623e-05  
  2.5600e-10    8.500e-01    8.050e-05  
  2.5700e-10    8.500e-01    1.048e-04  
  2.5800e-10    8.500e-01    1.290e-04  
  2.5900e-10    8.501e-01    1.533e-04  
  2.6000e-10    8.501e-01    1.776e-04  
  2.6100e-10    8.501e-01    2.019e-04  
  2.6200e-10    8.501e-01    2.261e-04  
  2.6300e-10    8.501e-01    2.504e-04  
  2.6400e-10    8.501e-01    2.747e-04  
  2.6500e-10    8.501e-01    2.989e-04  
  2.6600e-10    8.501e-01    3.232e-04  
  2.6700e-10    8.501e-01    3.475e-04  
  2.6800e-10    8.501e-01    3.718e-04  
  2.6900e-10    8.502e-01    3.960e-04  
  2.7000e-10    8.502e-01    4.203e-04  
  2.7100e-10    8.502e-01    4.446e-04  
  2.7200e-10    8.502e-01    4.688e-04  
  2.7300e-10    8.502e-01    4.931e-04  
  2.7400e-10    8.502e-01    5.174e-04  
  2.7500e-10    8.502e-01    4.973e-04  
  2.7600e-10    8.502e-01    4.755e-04  
  2.7700e-10    8.502e-01    4.537e-04  
  2.7800e-10    8.502e-01    4.318e-04  
  2.7900e-10    8.502e-01    4.100e-04  
  2.8000e-10    8.502e-01    3.882e-04  
  2.8100e-10    8.501e-01    3.664e-04  
  2.8200e-10    8.501e-01    3.445e-04  
  2.8300e-10    8.501e-01    3.227e-04  
  2.8400e-10    8.501e-01    3.009e-04  
  2.8500e-10    8.501e-01    2.790e-04  
  2.8600e-10    8.501e-01    2.572e-04  
  2.8700e-10    8.501e-01    2.354e-04  
  2.8800e-10    8.501e-01    2.136e-04  
  2.8900e-10    8.501e-01    1.917e-04  
  2.9000e-10    8.501e-01    1.699e-04  
  2.9100e-10    8.501e-01    1.481e-04  
  2.9200e-10    8.500e-01    1.262e-04  
  2.9300e-10    8.500e-01    1.044e-04  
  2.9400e-10    8.500e-01    8.259e-05  
  2.9500e-10    8.500e-01    6.077e-05  
  2.9600e-10    8.500e-01    3.894e-05  
  2.9700e-10    8.500e-01    1.711e-05  
  2.9800e-10    8.500e-01   -4.716e-06  
  2.9900e-10    8.500e-01   -2.654e-05  
  3.0000e-10    8.500e-01   -4.837e-05  
  3.0100e-10    8.500e-01   -7.020e-05  
  3.0200e-10    8.500e-01   -9.203e-05  
  3.0300e-10    8.500e-01   -1.139e-04  
  3.0400e-10    8.499e-01   -1.357e-04  
  3.0500e-10    8.499e-01   -1.575e-04  
  3.0600e-10    8.499e-01   -1.793e-04  
  3.0700e-10    8.499e-01   -2.012e-04  
  3.0800e-10    8.499e-01   -2.230e-04  
  3.0900e-10    8.499e-01   -2.448e-04  
  3.1000e-10    8.499e-01   -2.666e-04  
  3.1100e-10    8.499e-01   -2.885e-04  
  3.1200e-10    8.499e-01   -3.103e-04  
  3.1300e-10    8.499e-01   -3.321e-04  
  3.1400e-10    8.499e-01   -3.540e-04  
  3.1500e-10    8.499e-01   -3.758e-04  
  3.1600e-10    8.498e-01   -3.976e-04  
  3.1700e-10    8.498e-01   -4.194e-04  
  3.1800e-10    8.498e-01   -4.413e-04  
  3.1900e-10    8.498e-01   -4.631e-04  
  3.2000e-10    8.498e-01   -4.849e-04  
  3.2100e-10    8.498e-01   -5.067e-04  
  3.2200e-10    8.498e-01   -4.982e-04  
  3.2300e-10    8.498e-01   -4.783e-04  
  3.2400e-10    8.498e-01   -4.584e-04  
  3.2500e-10    8.498e-01   -4.386e-04  
  3.2600e-10    8.498e-01   -4.187e-04  
  3.2700e-10    8.498e-01   -3.988e-04  
  3.2800e-10    8.499e-01   -3.789e-04  
  3.2900e-10    8.499e-01   -3.590e-04  
  3.3000e-10    8.499e-01   -3.391e-04  
  3.3100e-10    8.499e-01   -3.192e-04  
  3.3200e-10    8.499e-01   -2.993e-04  
  3.3300e-10    8.499e-01   -2.794e-04  
  3.3400e-10    8.499e-01   -2.596e-04  
  3.3500e-10    8.499e-01   -2.397e-04  
  3.3600e-10    8.499e-01   -2.198e-04  
  3.3700e-10    8.499e-01   -1.999e-04  
  3.3800e-10    8.499e-01   -1.800e-04  
  3.3900e-10    8.499e-01   -1.601e-04  
  3.4000e-10    8.499e-01   -1.402e-04  
  3.4100e-10    8.500e-01   -1.203e-04  
  3.4200e-10    8.500e-01   -1.004e-04  
  3.4300e-10    8.500e-01   -8.054e-05  
  3.4400e-10    8.500e-01   -6.066e-05  
  3.4500e-10    8.500e-01   -4.077e-05  
  3.4600e-10    8.500e-01   -2.088e-05  
  3.4700e-10    8.500e-01   -9.870e-07  
  3.4800e-10    8.500e-01    1.890e-05  
  3.4900e-10    8.500e-01    3.879e-05  
  3.5000e-10    8.500e-01    5.868e-05  
  3.5100e-10    8.500e-01    7.857e-05  
  3.5200e-10    8.500e-01    9.846e-05  
  3.5300e-10    8.500e-01    1.183e-04  
  3.5400e-10    8.501e-01    1.382e-04  
  3.5500e-10    8.501e-01    1.581e-04  
  3.5600e-10    8.501e-01    1.780e-04  
  3.5700e-10    8.501e-01    1.979e-04  
  3.5800e-10    8.501e-01    2.178e-04  
  3.5900e-10    8.501e-01    2.377e-04  
  3.6000e-10    8.501e-01    2.576e-04  
  3.6100e-10    8.501e-01    2.775e-04  
  3.6200e-10    8.501e-01    2.974e-04  
  3.6300e-10    8.501e-01    3.172e-04  
  3.6400e-10    8.501e-01    3.371e-04  
  3.6500e-10    8.501e-01    3.570e-04  
  3.6600e-10    8.501e-01    3.769e-04  
  3.6700e-10    8.502e-01    3.968e-04  
  3.6800e-10    8.502e-01    4.167e-04  
  3.6900e-10    8.502e-01    4.366e-04  
  3.7000e-10    8.502e-01    4.565e-04  
  3.7100e-10    8.502e-01    4.764e-04  
  3.7200e-10    8.502e-01    4.962e-04  
  3.7300e-10    8.502e-01    5.039e-04  
  3.7400e-10    8.502e-01    4.856e-04  
  3.7500e-10    8.502e-01    4.672e-04  
  3.7600e-10    8.502e-01    4.489e-04  
  3.7700e-10    8.502e-01    4.306e-04  
  3.7800e-10    8.502e-01    4.122e-04  
  3.7900e-10    8.502e-01    3.939e-04  
  3.8000e-10    8.501e-01    3.756e-04  
  3.8100e-10    8.501e-01    3.572e-04  
  3.8200e-10    8.501e-01    3.389e-04  
  3.8300e-10    8.501e-01    3.206e-04  
  3.8400e-10    8.501e-01    3.022e-04  
  3.8500e-10    8.501e-01    2.839e-04  
  3.8600e-10    8.501e-01    2.656e-04  
  3.8700e-10    8.501e-01    2.472e-04  
  3.8800e-10    8.501e-01    2.289e-04  
  3.8900e-10    8.501e-01    2.106e-04  
  3.9000e-10    8.501e-01    1.922e-04  
  3.9100e-10    8.501e-01    1.739e-04  
  3.9200e-10    8.501e-01    1.556e-04  
  3.9300e-10    8.501e-01    1.372e-04  
  3.9400e-10    8.500e-01    1.189e-04  
  3.9500e-10    8.500e-01    1.005e-04  
  3.9600e-10    8.500e-01    8.221e-05  
  3.9700e-10    8.500e-01    6.388e-05  
  3.9800e-10    8.500e-01    4.555e-05  
  3.9900e-10    8.500e-01    2.721e-05  
  4.0000e-10    8.500e-01    8.876e-06  
  4.0100e-10    8.500e-01   -9.458e-06  
  4.0200e-10    8.500e-01   -2.779e-05  
  4.0300e-10    8.500e-01   -4.613e-05  
  4.0400e-10    8.500e-01   -6.446e-05  
  4.0500e-10    8.500e-01   -8.280e-05  
  4.0600e-10    8.500e-01   -1.011e-04  
  4.0700e-10    8.500e-01   -1.195e-04  
  4.0800e-10    8.499e-01   -1.378e-04  
  4.0900e-10    8.499e-01   -1.561e-04  
  4.1000e-10    8.499e-01   -1.745e-04  
  4.1100e-10    8.499e-01   -1.928e-04  
  4.1200e-10    8.499e-01   -2.111e-04  
  4.1300e-10    8.499e-01   -2.295e-04  
  4.1400e-10    8.499e-01   -2.478e-04  
  4.1500e-10    8.499e-01   -2.661e-04  
  4.1600e-10    8.499e-01   -2.845e-04  
  4.1700e-10    8.499e-01   -3.028e-04  
  4.1800e-10    8.499e-01   -3.211e-04  
  4.1900e-10    8.499e-01   -3.395e-04  
  4.2000e-10    8.499e-01   -3.578e-04  
  4.2100e-10    8.499e-01   -3.761e-04  
  4.2200e-10    8.498e-01   -3.945e-04  
  4.2300e-10    8.498e-01   -4.128e-04  
  4.2400e-10    8.498e-01   -4.311e-04  
  4.2500e-10    8.498e-01   -4.495e-04  
  4.2600e-10    8.498e-01   -4.678e-04  
  4.2700e-10    8.498e-01   -4.862e-04  
  4.2800e-10    8.498e-01   -5.045e-04  
  4.2900e-10    8.498e-01   -4.882e-04  
  4.3000e-10    8.498e-01   -4.711e-04  
  4.3100e-10    8.498e-01   -4.540e-04  
  4.3200e-10    8.498e-01   -4.370e-04  
  4.3300e-10    8.498e-01   -4.199e-04  
  4.3400e-10    8.498e-01   -4.028e-04  
  4.3500e-10    8.498e-01   -3.858e-04  
  4.3600e-10    8.499e-01   -3.687e-04  
  4.3700e-10    8.499e-01   -3.517e-04  
  4.3800e-10    8.499e-01   -3.346e-04  
  4.3900e-10    8.499e-01   -3.175e-04  
  4.4000e-10    8.499e-01   -3.005e-04  
  4.4100e-10    8.499e-01   -2.834e-04  
  4.4200e-10    8.499e-01   -2.663e-04  
  4.4300e-10    8.499e-01   -2.493e-04  
  4.4400e-10    8.499e-01   -2.322e-04  
  4.4500e-10    8.499e-01   -2.151e-04  
  4.4600e-10    8.499e-01   -1.981e-04  
  4.4700e-10    8.499e-01   -1.810e-04  
  4.4800e-10    8.499e-01   -1.640e-04  
  4.4900e-10    8.499e-01   -1.469e-04  
  4.5000e-10    8.499e-01   -1.298e-04  
  4.5100e-10    8.500e-01   -1.128e-04  
  4.5200e-10    8.500e-01   -9.570e-05  
  4.5300e-10    8.500e-01   -7.864e-05  
  4.5400e-10    8.500e-01   -6.157e-05  
  4.5500e-10    8.500e-01   -4.451e-05  
  4.5600e-10    8.500e-01   -2.745e-05  
  4.5700e-10    8.500e-01   -1.038e-05  
  4.5800e-10    8.500e-01    6.682e-06  
  4.5900e-10    8.500e-01    2.375e-05  
  4.6000e-10    8.500e-01    4.081e-05  
  4.6100e-10    8.500e-01    5.787e-05  
  4.6200e-10    8.500e-01    7.494e-05  
  4.6300e-10    8.500e-01    9.200e-05  
  4.6400e-10    8.500e-01    1.091e-04  
  4.6500e-10    8.500e-01    1.261e-04  
  4.6600e-10    8.501e-01    1.432e-04  
  4.6700e-10    8.501e-01    1.603e-04  
  4.6800e-10    8.501e-01    1.773e-04  
  4.6900e-10    8.501e-01    1.944e-04  
  4.7000e-10    8.501e-01    2.114e-04  
[...]
  1.5610e-09    1.463e-06    8.500e-01  
  1.5620e-09    1.543e-06    8.500e-01  
  1.5630e-09    1.623e-06    8.500e-01  
  1.5640e-09    1.638e-06    8.500e-01  
  1.5650e-09    1.593e-06    8.500e-01  
  1.5660e-09    1.548e-06    8.500e-01  
  1.5670e-09    1.503e-06    8.500e-01  
  1.5680e-09    1.458e-06    8.500e-01  
  1.5690e-09    1.412e-06    8.500e-01  
  1.5700e-09    1.367e-06    8.500e-01  
  1.5710e-09    1.322e-06    8.500e-01  
  1.5720e-09    1.277e-06    8.500e-01  
  1.5730e-09    1.231e-06    8.500e-01  
  1.5740e-09    1.186e-06    8.500e-01  
  1.5750e-09    1.141e-06    8.500e-01  
  1.5760e-09    1.096e-06    8.500e-01  
  1.5770e-09    1.051e-06    8.500e-01  
  1.5780e-09    1.005e-06    8.500e-01  
  1.5790e-09    9.602e-07    8.500e-01  
  1.5800e-09    9.150e-07    8.500e-01  
  1.5810e-09    8.698e-07    8.500e-01  
  1.5820e-09    8.246e-07    8.500e-01  
  1.5830e-09    7.793e-07    8.500e-01  
  1.5840e-09    7.341e-07    8.500e-01  
  1.5850e-09    6.889e-07    8.500e-01  
  1.5860e-09    6.437e-07    8.500e-01  
  1.5870e-09    5.985e-07    8.500e-01  
  1.5880e-09    5.533e-07    8.500e-01  
  1.5890e-09    5.081e-07    8.500e-01  
  1.5900e-09    0.000e+00    8.500e-01  
  1.5910e-09    0.000e+00    8.500e-01  
  1.5920e-09    0.000e+00    8.500e-01  
  1.5930e-09    0.000e+00    8.500e-01  
  1.5940e-09    0.000e+00    8.500e-01  
  1.5950e-09    0.000e+00    8.500e-01  
  1.5960e-09    0.000e+00    8.500e-01  
  1.5970e-09    0.000e+00    8.500e-01  
  1.5980e-09    0.000e+00    8.500e-01  
  1.5990e-09    0.000e+00    8.500e-01  
  1.6000e-09    0.000e+00    8.500e-01  
  1.6010e-09    0.000e+00    8.500e-01  
  1.6020e-09    0.000e+00    8.500e-01  
  1.6030e-09    0.000e+00    8.500e-01  
  1.6040e-09    0.000e+00    8.500e-01  
  1.6050e-09    0.000e+00    8.500e-01  
  1.6060e-09    0.000e+00    8.500e-01  
  1.6070e-09    0.000e+00    8.500e-01  
  1.6080e-09    0.000e+00    8.500e-01  
  1.6090e-09    0.000e+00    8.500e-01  
  1.6100e-09    0.000e+00    8.500e-01  
  1.6110e-09    0.000e+00    8.500e-01  
  1.6120e-09   -5.318e-07    8.500e-01  
  1.6130e-09   -5.770e-07    8.500e-01  
  1.6140e-09   -6.222e-07    8.500e-01  
  1.6150e-09   -6.674e-07    8.500e-01  
  1.6160e-09   -7.126e-07    8.500e-01  
  1.6170e-09   -7.578e-07    8.500e-01  
  1.6180e-09   -8.030e-07    8.500e-01  
  1.6190e-09   -7.846e-07    8.500e-01  
  1.6200e-09   -7.482e-07    8.500e-01  
  1.6210e-09   -7.117e-07    8.500e-01  
  1.6220e-09   -6.753e-07    8.500e-01  
  1.6230e-09   -6.389e-07    8.500e-01  
  1.6240e-09   -6.025e-07    8.500e-01  
  1.6250e-09   -5.660e-07    8.500e-01  
  1.6260e-09   -5.296e-07    8.500e-01  
  1.6270e-09    0.000e+00    8.500e-01  
  1.6280e-09    0.000e+00    8.500e-01  
  1.6290e-09    0.000e+00    8.500e-01  
  1.6300e-09    0.000e+00    8.500e-01  
  1.6310e-09    0.000e+00    8.500e-01  
  1.6320e-09    0.000e+00    8.500e-01  
  1.6330e-09    0.000e+00    8.500e-01  
  1.6340e-09    0.000e+00    8.500e-01  
  1.6350e-09    0.000e+00    8.500e-01  
  1.6360e-09    0.000e+00    8.500e-01  
  1.6370e-09    0.000e+00    8.500e-01  
  1.6380e-09    0.000e+00    8.500e-01  
  1.6390e-09    0.000e+00    8.500e-01  
  1.6400e-09    0.000e+00    8.500e-01  
  1.6410e-09    0.000e+00    8.500e-01  
  1.6420e-09    0.000e+00    8.500e-01  
  1.6430e-09    0.000e+00    8.500e-01  
  1.6440e-09    0.000e+00    8.500e-01  
  1.6450e-09    0.000e+00    8.500e-01  
  1.6460e-09    0.000e+00    8.500e-01  
  1.6470e-09    0.000e+00    8.500e-01  
  1.6480e-09    0.000e+00    8.500e-01  
  1.6490e-09    0.000e+00    8.500e-01  
  1.6500e-09    0.000e+00    8.500e-01  
  1.6510e-09    0.000e+00    8.500e-01  
  1.6520e-09    0.000e+00    8.500e-01  
  1.6530e-09    0.000e+00    8.500e-01  
  1.6540e-09    0.000e+00    8.500e-01  
  1.6550e-09    5.267e-07    8.500e-01  
  1.6560e-09    5.631e-07    8.500e-01  
  1.6570e-09    5.996e-07    8.500e-01  
  1.6580e-09    6.360e-07    8.500e-01  
  1.6590e-09    6.724e-07    8.500e-01  
  1.6600e-09    7.088e-07    8.500e-01  
  1.6610e-09    7.453e-07    8.500e-01  
  1.6620e-09    7.817e-07    8.500e-01  
  1.6630e-09    8.181e-07    8.500e-01  
  1.6640e-09    8.545e-07    8.500e-01  
  1.6650e-09    8.910e-07    8.500e-01  
  1.6660e-09    9.274e-07    8.500e-01  
  1.6670e-09    9.638e-07    8.500e-01  
  1.6680e-09    1.000e-06    8.500e-01  
  1.6690e-09    1.037e-06    8.500e-01  
  1.6700e-09    1.073e-06    8.500e-01  
  1.6710e-09    1.110e-06    8.500e-01  
  1.6720e-09    1.146e-06    8.500e-01  
  1.6730e-09    1.182e-06    8.500e-01  
  1.6740e-09    1.219e-06    8.500e-01  
  1.6750e-09    1.255e-06    8.500e-01  
  1.6760e-09    1.292e-06    8.500e-01  
  1.6770e-09    1.285e-06    8.500e-01  
  1.6780e-09    1.264e-06    8.500e-01  
  1.6790e-09    1.243e-06    8.500e-01  
  1.6800e-09    1.222e-06    8.500e-01  
  1.6810e-09    1.201e-06    8.500e-01  
  1.6820e-09    1.180e-06    8.500e-01  
  1.6830e-09    1.159e-06    8.500e-01  
  1.6840e-09    1.138e-06    8.500e-01  
  1.6850e-09    1.117e-06    8.500e-01  
  1.6860e-09    1.096e-06    8.500e-01  
  1.6870e-09    1.075e-06    8.500e-01  
  1.6880e-09    1.054e-06    8.500e-01  
  1.6890e-09    1.033e-06    8.500e-01  
  1.6900e-09    1.012e-06    8.500e-01  
  1.6910e-09    9.905e-07    8.500e-01  
  1.6920e-09    9.695e-07    8.500e-01  
  1.6930e-09    9.485e-07    8.500e-01  
  1.6940e-09    9.275e-07    8.500e-01  
  1.6950e-09    9.065e-07    8.500e-01  
  1.6960e-09    8.855e-07    8.500e-01  
  1.6970e-09    8.645e-07    8.500e-01  
  1.6980e-09    8.435e-07    8.500e-01  
  1.6990e-09    8.225e-07    8.500e-01  
  1.7000e-09    8.015e-07    8.500e-01  
  1.7010e-09    7.805e-07    8.500e-01  
  1.7020e-09    7.594e-07    8.500e-01  
  1.7030e-09    7.384e-07    8.500e-01  
  1.7040e-09    7.174e-07    8.500e-01  
  1.7050e-09    6.964e-07    8.500e-01  
  1.7060e-09    6.754e-07    8.500e-01  
  1.7070e-09    6.544e-07    8.500e-01  
  1.7080e-09    6.334e-07    8.500e-01  
  1.7090e-09    6.124e-07    8.500e-01  
  1.7100e-09    5.914e-07    8.500e-01  
  1.7110e-09    5.704e-07    8.500e-01  
  1.7120e-09    5.494e-07    8.500e-01  
  1.7130e-09    5.284e-07    8.500e-01  
  1.7140e-09    5.074e-07    8.500e-01  
  1.7150e-09    0.000e+00    8.500e-01  
  1.7160e-09    0.000e+00    8.500e-01  
  1.7170e-09    0.000e+00    8.500e-01  
  1.7180e-09    0.000e+00    8.500e-01  
  1.7190e-09    0.000e+00    8.500e-01  
  1.7200e-09    0.000e+00    8.500e-01  
  1.7210e-09    0.000e+00    8.500e-01  
  1.7220e-09    0.000e+00    8.500e-01  
  1.7230e-09    0.000e+00    8.500e-01  
  1.7240e-09    0.000e+00    8.500e-01  
  1.7250e-09    0.000e+00    8.500e-01  
  1.7260e-09    0.000e+00    8.500e-01  
  1.7270e-09    0.000e+00    8.500e-01  
  1.7280e-09    0.000e+00    8.500e-01  
  1.7290e-09    0.000e+00    8.500e-01  
  1.7300e-09    0.000e+00    8.500e-01  
  1.7310e-09    0.000e+00    8.500e-01  
  1.7320e-09    0.000e+00    8.500e-01  
  1.7330e-09    0.000e+00    8.500e-01  
  1.7340e-09    0.000e+00    8.500e-01  
  1.7350e-09    0.000e+00    8.500e-01  
  1.7360e-09    0.000e+00    8.500e-01  
  1.7370e-09    0.000e+00    8.500e-01  
  1.7380e-09    0.000e+00    8.500e-01  
  1.7390e-09    0.000e+00    8.500e-01  
  1.7400e-09    0.000e+00    8.500e-01  
  1.7410e-09    0.000e+00    8.500e-01  
  1.7420e-09    0.000e+00    8.500e-01  
  1.7430e-09    0.000e+00    8.500e-01  
  1.7440e-09    0.000e+00    8.500e-01  
  1.7450e-09    0.000e+00    8.500e-01  
  1.7460e-09    0.000e+00    8.500e-01  
  1.7470e-09    0.000e+00    8.500e-01  
  1.7480e-09    0.000e+00    8.500e-01  
  1.7490e-09    0.000e+00    8.500e-01  
  1.7500e-09    0.000e+00    8.500e-01  
  1.7510e-09    0.000e+00    8.500e-01  
  1.7520e-09    0.000e+00    8.500e-01  
  1.7530e-09    0.000e+00    8.500e-01  
  1.7540e-09    0.000e+00    8.500e-01  
  1.7550e-09    0.000e+00    8.500e-01  
  1.7560e-09    0.000e+00    8.500e-01  
  1.7570e-09    0.000e+00    8.500e-01  
  1.7580e-09    0.000e+00    8.500e-01  
  1.7590e-09    0.000e+00    8.500e-01  
  1.7600e-09    0.000e+00    8.500e-01  
  1.7610e-09    0.000e+00    8.500e-01  
  1.7620e-09   -5.010e-07    8.500e-01  
  1.7630e-09   -5.220e-07    8.500e-01  
  1.7640e-09   -5.430e-07    8.500e-01  
  1.7650e-09   -5.640e-07    8.500e-01  
  1.7660e-09   -5.850e-07    8.500e-01  
  1.7670e-09   -6.060e-07    8.500e-01  
  1.7680e-09   -6.270e-07    8.500e-01  
  1.7690e-09   -6.480e-07    8.500e-01  
  1.7700e-09   -6.690e-07    8.500e-01  
  1.7710e-09   -6.901e-07    8.500e-01  
  1.7720e-09   -7.111e-07    8.500e-01  
  1.7730e-09   -7.321e-07    8.500e-01  
  1.7740e-09   -7.531e-07    8.500e-01  
  1.7750e-09   -7.741e-07    8.500e-01  
  1.7760e-09   -7.951e-07    8.500e-01  
  1.7770e-09   -7.844e-07    8.500e-01  
  1.7780e-09   -7.635e-07    8.500e-01  
  1.7790e-09   -7.426e-07    8.500e-01  
  1.7800e-09   -7.216e-07    8.500e-01  
  1.7810e-09   -7.007e-07    8.500e-01  
  1.7820e-09   -6.798e-07    8.500e-01  
  1.7830e-09   -6.589e-07    8.500e-01  
  1.7840e-09   -6.380e-07    8.500e-01  
  1.7850e-09   -6.171e-07    8.500e-01  
  1.7860e-09   -5.961e-07    8.500e-01  
  1.7870e-09   -5.752e-07    8.500e-01  
  1.7880e-09   -5.543e-07    8.500e-01  
  1.7890e-09   -5.334e-07    8.500e-01  
  1.7900e-09   -5.125e-07    8.500e-01  
  1.7910e-09    0.000e+00    8.500e-01  
  1.7920e-09    0.000e+00    8.500e-01  
  1.7930e-09    0.000e+00    8.500e-01  
  1.7940e-09    0.000e+00    8.500e-01  
  1.7950e-09    0.000e+00    8.500e-01  
  1.7960e-09    0.000e+00    8.500e-01  
  1.7970e-09    0.000e+00    8.500e-01  
  1.7980e-09    0.000e+00    8.500e-01  
  1.7990e-09    0.000e+00    8.500e-01  
  1.8000e-09    0.000e+00    8.500e-01  
  1.8010e-09    0.000e+00    8.500e-01  
  1.8020e-09    0.000e+00    8.500e-01  
  1.8030e-09    0.000e+00    8.500e-01  
  1.8040e-09    0.000e+00    8.500e-01  
  1.8050e-09    0.000e+00    8.500e-01  
  1.8060e-09    0.000e+00    8.500e-01  
  1.8070e-09    0.000e+00    8.500e-01  
  1.8080e-09    0.000e+00    8.500e-01  
  1.8090e-09    0.000e+00    8.500e-01  
  1.8100e-09    0.000e+00    8.500e-01  
  1.8110e-09    0.000e+00    8.500e-01  
  1.8120e-09    0.000e+00    8.500e-01  
  1.8130e-09    0.000e+00    8.500e-01  
  1.8140e-09    0.000e+00    8.500e-01  
  1.8150e-09    0.000e+00    8.500e-01  
  1.8160e-09    0.000e+00    8.500e-01  
  1.8170e-09    0.000e+00    8.500e-01  
  1.8180e-09    0.000e+00    8.500e-01  
  1.8190e-09    0.000e+00    8.500e-01  
  1.8200e-09    0.000e+00    8.500e-01  
  1.8210e-09    0.000e+00    8.500e-01  
  1.8220e-09    0.000e+00    8.500e-01  
  1.8230e-09    0.000e+00    8.500e-01  
  1.8240e-09    0.000e+00    8.500e-01  
  1.8250e-09    0.000e+00    8.500e-01  
  1.8260e-09    0.000e+00    8.500e-01  
  1.8270e-09    0.000e+00    8.500e-01  
  1.8280e-09    0.000e+00    8.500e-01  
  1.8290e-09    0.000e+00    8.500e-01  
  1.8300e-09    0.000e+00    8.500e-01  
  1.8310e-09    0.000e+00    8.500e-01  
  1.8320e-09    0.000e+00    8.500e-01  
  1.8330e-09    0.000e+00    8.500e-01  
  1.8340e-09    0.000e+00    8.500e-01  
  1.8350e-09    0.000e+00    8.500e-01  
  1.8360e-09    0.000e+00    8.500e-01  
  1.8370e-09    0.000e+00    8.500e-01  
  1.8380e-09    0.000e+00    8.500e-01  
  1.8390e-09    5.124e-07    8.500e-01  
  1.8400e-09    5.333e-07    8.500e-01  
  1.8410e-09    5.542e-07    8.500e-01  
  1.8420e-09    5.751e-07    8.500e-01  
  1.8430e-09    5.960e-07    8.500e-01  
  1.8440e-09    6.170e-07    8.500e-01  
  1.8450e-09    6.379e-07    8.500e-01  
  1.8460e-09    6.588e-07    8.500e-01  
  1.8470e-09    6.797e-07    8.500e-01  
  1.8480e-09    7.006e-07    8.500e-01  
  1.8490e-09    7.215e-07    8.500e-01  
  1.8500e-09    7.425e-07    8.500e-01  
  1.8510e-09    7.634e-07    8.500e-01  
  1.8520e-09    7.843e-07    8.500e-01  
  1.8530e-09    8.052e-07    8.500e-01  
  1.8540e-09    8.261e-07    8.500e-01  
  1.8550e-09    8.470e-07    8.500e-01  
  1.8560e-09    8.680e-07    8.500e-01  
  1.8570e-09    8.889e-07    8.500e-01  
  1.8580e-09    9.098e-07    8.500e-01  
  1.8590e-09    9.307e-07    8.500e-01  
  1.8600e-09    9.516e-07    8.500e-01  
  1.8610e-09    9.725e-07    8.500e-01  
  1.8620e-09    9.934e-07    8.500e-01  
  1.8630e-09    1.014e-06    8.500e-01  
  1.8640e-09    1.035e-06    8.500e-01  
  1.8650e-09    1.056e-06    8.500e-01  
  1.8660e-09    1.077e-06    8.500e-01  
  1.8670e-09    1.098e-06    8.500e-01  
  1.8680e-09    1.119e-06    8.500e-01  
  1.8690e-09    1.140e-06    8.500e-01  
  1.8700e-09    1.161e-06    8.500e-01  
  1.8710e-09    1.182e-06    8.500e-01  
  1.8720e-09    1.203e-06    8.500e-01  
  1.8730e-09    1.224e-06    8.500e-01  
  1.8740e-09    1.244e-06    8.500e-01  
  1.8750e-09    1.265e-06    8.500e-01  
  1.8760e-09    1.286e-06    8.500e-01  
  1.8770e-09    1.276e-06    8.500e-01  
  1.8780e-09    1.255e-06    8.500e-01  
  1.8790e-09    1.234e-06    8.500e-01  
  1.8800e-09    1.213e-06    8.500e-01  
  1.8810e-09    1.192e-06    8.500e-01  
  1.8820e-09    1.171e-06    8.500e-01  
  1.8830e-09    1.151e-06    8.500e-01  
  1.8840e-09    1.130e-06    8.500e-01  
  1.8850e-09    1.109e-06    8.500e-01  
  1.8860e-09    1.088e-06    8.500e-01  
  1.8870e-09    1.067e-06    8.500e-01  
  1.8880e-09    1.047e-06    8.500e-01  
  1.8890e-09    1.026e-06    8.500e-01  
  1.8900e-09    1.005e-06    8.500e-01  
  1.8910e-09    9.840e-07    8.500e-01  
  1.8920e-09    9.632e-07    8.500e-01  
  1.8930e-09    9.424e-07    8.500e-01  
  1.8940e-09    9.216e-07    8.500e-01  
  1.8950e-09    9.007e-07    8.500e-01  
  1.8960e-09    8.799e-07    8.500e-01  
  1.8970e-09    8.591e-07    8.500e-01  
  1.8980e-09    8.383e-07    8.500e-01  
  1.8990e-09    8.174e-07    8.500e-01  
  1.9000e-09    7.966e-07    8.500e-01  
  1.9010e-09    7.758e-07    8.500e-01  
  1.9020e-09    7.550e-07    8.500e-01  
  1.9030e-09    7.341e-07    8.500e-01  
  1.9040e-09    7.133e-07    8.500e-01  
  1.9050e-09    6.925e-07    8.500e-01  
  1.9060e-09    6.717e-07    8.500e-01  
  1.9070e-09    6.508e-07    8.500e-01  
  1.9080e-09    6.300e-07    8.500e-01  
  1.9090e-09    6.092e-07    8.500e-01  
  1.9100e-09    5.884e-07    8.500e-01  
  1.9110e-09    5.675e-07    8.500e-01  
  1.9120e-09    5.467e-07    8.500e-01  
  1.9130e-09    5.259e-07    8.500e-01  
  1.9140e-09    5.051e-07    8.500e-01  
  1.9150e-09    0.000e+00    8.500e-01  
  1.9160e-09    0.000e+00    8.500e-01  
  1.9170e-09    0.000e+00    8.500e-01  
  1.9180e-09    0.000e+00    8.500e-01  
  1.9190e-09    0.000e+00    8.500e-01  
  1.9200e-09    0.000e+00    8.500e-01  
  1.9210e-09    0.000e+00    8.500e-01  
  1.9220e-09    0.000e+00    8.500e-01  
  1.9230e-09    0.000e+00    8.500e-01  
  1.9240e-09    0.000e+00    8.500e-01  
  1.9250e-09    0.000e+00    8.500e-01  
  1.9260e-09    0.000e+00    8.500e-01  
  1.9270e-09    0.000e+00    8.500e-01  
  1.9280e-09    0.000e+00    8.500e-01  
  1.9290e-09    0.000e+00    8.500e-01  
  1.9300e-09    0.000e+00    8.500e-01  
  1.9310e-09    0.000e+00    8.500e-01  
  1.9320e-09    0.000e+00    8.500e-01  
  1.9330e-09    0.000e+00    8.500e-01  
  1.9340e-09    0.000e+00    8.500e-01  
  1.9350e-09    0.000e+00    8.500e-01  
  1.9360e-09    0.000e+00    8.500e-01  
  1.9370e-09    0.000e+00    8.500e-01  
  1.9380e-09    0.000e+00    8.500e-01  
  1.9390e-09    0.000e+00    8.500e-01  
  1.9400e-09    0.000e+00    8.500e-01  
  1.9410e-09    0.000e+00    8.500e-01  
  1.9420e-09    0.000e+00    8.500e-01  
  1.9430e-09    0.000e+00    8.500e-01  
  1.9440e-09    0.000e+00    8.500e-01  
  1.9450e-09    0.000e+00    8.500e-01  
  1.9460e-09    0.000e+00    8.500e-01  
  1.9470e-09    0.000e+00    8.500e-01  
  1.9480e-09    0.000e+00    8.500e-01  
  1.9490e-09    0.000e+00    8.500e-01  
  1.9500e-09    0.000e+00    8.500e-01  
  1.9510e-09    0.000e+00    8.500e-01  
  1.9520e-09    0.000e+00    8.500e-01  
  1.9530e-09    0.000e+00    8.500e-01  
  1.9540e-09    0.000e+00    8.500e-01  
  1.9550e-09    0.000e+00    8.500e-01  
  1.9560e-09    0.000e+00    8.500e-01  
  1.9570e-09    0.000e+00    8.500e-01  
  1.9580e-09    0.000e+00    8.500e-01  
  1.9590e-09    0.000e+00    8.500e-01  
  1.9600e-09    0.000e+00    8.500e-01  
  1.9610e-09    0.000e+00    8.500e-01  
  1.9620e-09    0.000e+00    8.500e-01  
  1.9630e-09   -5.154e-07    8.500e-01  
  1.9640e-09   -5.362e-07    8.500e-01  
  1.9650e-09   -5.570e-07    8.500e-01  
  1.9660e-09   -5.779e-07    8.500e-01  
  1.9670e-09   -5.987e-07    8.500e-01  
  1.9680e-09   -6.195e-07    8.500e-01  
  1.9690e-09   -6.403e-07    8.500e-01  
  1.9700e-09   -6.612e-07    8.500e-01  
  1.9710e-09   -6.820e-07    8.500e-01  
  1.9720e-09   -7.028e-07    8.500e-01  
  1.9730e-09   -7.236e-07    8.500e-01  
  1.9740e-09   -7.445e-07    8.500e-01  
  1.9750e-09   -7.653e-07    8.500e-01  
  1.9760e-09   -7.861e-07    8.500e-01  
  1.9770e-09   -7.256e-07    8.500e-01  
  1.9780e-09   -6.389e-07    8.500e-01  
  1.9790e-09   -5.522e-07    8.500e-01  
  1.9800e-09    0.000e+00    8.500e-01  
  1.9810e-09    0.000e+00    8.500e-01  
  1.9820e-09    0.000e+00    8.500e-01  
  1.9830e-09    0.000e+00    8.500e-01  
  1.9840e-09    0.000e+00    8.500e-01  
  1.9850e-09    0.000e+00    8.500e-01  
  1.9860e-09    0.000e+00    8.500e-01  
  1.9870e-09    0.000e+00    8.500e-01  
  1.9880e-09    0.000e+00    8.500e-01  
  1.9890e-09    0.000e+00    8.500e-01  
  1.9900e-09    0.000e+00    8.500e-01  
  1.9910e-09    0.000e+00    8.500e-01  
  1.9920e-09    5.750e-07    8.500e-01  
  1.9930e-09    6.617e-07    8.500e-01  
  1.9940e-09    7.484e-07    8.500e-01  
  1.9950e-09    8.351e-07    8.500e-01  
  1.9960e-09    9.218e-07    8.500e-01  
  1.9970e-09    1.009e-06    8.500e-01  
  1.9980e-09    1.095e-06    8.500e-01  
  1.9990e-09    1.182e-06    8.500e-01  
  2.0000e-09    1.269e-06    8.500e-01  
y

          ***** job concluded
1****** HSPICE -- F-2011.09-SP2 64-BIT (Feb 27 2012) linux ******               
 ******  
 $ netlist of inverter

  ******  job statistics summary tnom=  25.000 temp=  25.000 *****
  
  
 ******  Machine Information  ******
 CPU:
 model name	: Intel(R) Xeon(R) CPU E5-2650 v4 @ 2.20GHz
 cpu MHz	: 2703.507
  
 OS:
 Linux version 3.10.0-693.17.1.el7.x86_64 (mockbuild@x86-041.build.eng.bos.redha
 t.com) (gcc version 4.8.5 20150623 (Red Hat 4.8.5-16) (GCC) ) #1 SMP Sun Jan 14
  10:36:03 EST 2018


  ******  HSPICE Threads Information  ******

  Command Line Threads Count :     1
  Available CPU Count        :    24
  Actual Threads Count       :     1


  ******  Circuit Statistics  ******
  # nodes       =      33 # elements   =      14
  # resistors   =       0 # capacitors =       0 # inductors   =       0
  # mutual_inds =       0 # vccs       =       0 # vcvs        =       0
  # cccs        =       0 # ccvs       =       0 # volt_srcs   =       2
  # curr_srcs   =       0 # diodes     =       0 # bjts        =       0
  # jfets       =       0 # mosfets    =      12 # U elements  =       0
  # T elements  =       0 # W elements =       0 # B elements  =       0
  # S elements  =       0 # P elements =       0 # va device   =       0
  # vector_srcs =       0


  ******  Runtime Statistics (seconds)  ******

  analysis           time    # points   tot. iter  conv.iter
  op point           0.00           1           4
  transient          0.03        2001         338          97 rev=         2
  readin             0.00
  errchk             0.01
  setup              0.00
  output             0.01


           peak memory used        135.46 megabytes
           total cpu time            0.05 seconds
           total elapsed time        0.31 seconds
           job started at     18:03:07 09/17/2020
           job ended   at     18:03:07 09/17/2020


 lic: Release hspice token(s) 
