 ****** HSPICE -- F-2011.09-SP2 64-BIT (Feb 27 2012) linux ******               
  Copyright (C) 2011 Synopsys, Inc. All Rights Reserved.                        
  Unpublished-rights reserved under US copyright laws.
  This program is protected by law and is subject to the
  terms and conditions of the license agreement from Synopsys.
  Use of this program is your acceptance to be bound by the
  license agreement. HSPICE is the trademark of Synopsys, Inc.
  Input File: ptm16lstp.sp                                                      
  Command line options: ptm16lstp.sp
 lic:  
 lic: FLEXlm: v10.8 
 lic: USER:   iliabautista         HOSTNAME: itn0.rc.usf.edu 
 lic: HOSTID:                      PID:      78187 
 lic: Using FLEXlm license file: 
 lic: 27000@license0.rc.usf.edu 
 lic: Checkout 1 hspice 
 lic: License/Maintenance for hspice will expire on 18-jul-2021/2019.06 
 lic: 1(in_use)/50(total) FLOATING license(s) on SERVER license0.rc.usf.edu 
 lic:   
  **warning** (../modelfiles/lstp/16nfet.pm:4) Model nfet device geometries will not be checked against the limits set by lmin, lmax, nfinmin and nfinmax. To enable this check, add a period(.) to the model name(i.e. enable model selector).
1****** HSPICE -- F-2011.09-SP2 64-BIT (Feb 27 2012) linux ******               
 ******  
 $ netlist of inverter

  ******  circuit name directory
 circuit number to circuit name directory
   number circuitname                     definition         multiplier
        0 main circuit
        1 xinput_0.                       inverter           1.00 
        2 xinput_1.                       inverter           1.00 
        3 xmodel_uut_grid.                model_uut_grid     1.00 
        4 xoutput_00.                     inverter           1.00 
        5 xoutput_10.                     inverter           1.00 
        6 xinput_0.xpfet.                 pfet               1.00 
        7 xinput_0.xnfet.                 nfet               1.00 
        8 xinput_1.xpfet.                 pfet               1.00 
        9 xinput_1.xnfet.                 nfet               1.00 
       10 xmodel_uut_grid.xinverter00.    inverter           1.00 
       11 xmodel_uut_grid.xinverter10.    inverter           1.00 
       12 xmodel_uut_grid.xinverter01.    inverter           1.00 
       13 xmodel_uut_grid.xinverter11.    inverter           1.00 
       14 xoutput_00.xpfet.               pfet               1.00 
       15 xoutput_00.xnfet.               nfet               1.00 
       16 xoutput_10.xpfet.               pfet               1.00 
       17 xoutput_10.xnfet.               nfet               1.00 
       18 xmodel_uut_grid.xinverter00.xpfet.
                                            pfet               1.00 
       19 xmodel_uut_grid.xinverter00.xnfet.
                                            nfet               1.00 
       20 xmodel_uut_grid.xinverter10.xpfet.
                                            pfet               1.00 
       21 xmodel_uut_grid.xinverter10.xnfet.
                                            nfet               1.00 
       22 xmodel_uut_grid.xinverter01.xpfet.
                                            pfet               1.00 
       23 xmodel_uut_grid.xinverter01.xnfet.
                                            nfet               1.00 
       24 xmodel_uut_grid.xinverter11.xpfet.
                                            pfet               1.00 
       25 xmodel_uut_grid.xinverter11.xnfet.
                                            nfet               1.00 
1****** HSPICE -- F-2011.09-SP2 64-BIT (Feb 27 2012) linux ******               
 ******  
 $ netlist of inverter

  ******  mos   model parameters tnom=  25.000 temp=  25.000 *****
 Model Name: pfet 
 BSIM-MG BULK Model(Level72)
   VERSION = 105.03  
   DEVTYPE = -1 
   BULKMOD = 1  
   COREMOD = 0 
   GEOMOD = 1 
   RDSMOD = 1 
   IGCMOD = 1 
   IGBMOD = 1 
   GIDLMOD = 0 
   IIMOD = 0 
   NQSMOD = 0 
   SHMOD = 0 
   RGATEMOD = 0 
   RGEOMOD = 1 
   CGEOMOD = 2 
   CAPMOD = 0 
   LINT = -1e-09 m
   LL =      0 m^(LLN+1)
   LLN =      1 
   DLC =      0 m
   DLBIN =      0 
   LLC =      0 m^(LLN+1)
   EOT =  1e-09 m
   TOXP = 1.35e-09 m
   EOTBOX = 1.4e-07 m
   HFIN = 2.6e-08 m
   FECH =      1 
   DELTAW =      0 m
   FECHCV =      1 
   DELTAWCV =      0 m
   NBODY =  1e+23 m^-3
   NSD =  3e+26 m^-3
   PHIG =  4.588 eV
   EPSROX =    3.9 
   EPSRSUB =   11.9 
   EASUB =   4.05 eV
   NI0SUB = 1.1e+16 m^-3
   BG0SUB =   1.12 eV
   NC0SUB = 2.86e+25 m^-3
   NGATE =      0 m^-3
   CIT = 1.3e-05 F/m^2
   CDSC =  0.021 F/m^2
   CDSCD =  0.007 F/m^2
   CDSCDR =  0.007 
   DVT0 =   0.01 
   DVT1 =   0.69 
   PHIN =   0.05 V
   ETA0 = 0.9925 
   ETA0R = 0.9925 
   DSUB =    0.9 
   K1RSCE =      0 V^1/2
   LPE0 =  5e-09 m
   DVTSHIFT =      0 
   QMFACTOR =      0 
   QMTCENIV =      0 
   QMTCENCV =      0 
   AQMTCEN =      0 
   BQMTCEN = 1.2e-08 
   ETAQM =   0.54 
   QM0 = 0.001143 
   PQM =   0.66 
   QM0ACC =  0.001 
   PQMACC =   0.66 
   VSAT = 8.8e+04 
   AVSAT =      0 
   BVSAT =  1e-07 
   VSAT1 = 8.8e+04 
   AVSAT1 =      0 
   BVSAT1 =  1e-07 
   DELTAVSAT =      1 
   KSATIV =    0.8 
   MEXP =      3 
   AMEXP =      0 
   BMEXP =      1 
   PTWG =      0 
   APTWG =      0 
   BPTWG =  1e-07 
   AT = -0.00156 
   TMEXP =      0 
   PTWGT =  0.004 
   U0 =   0.03 
   ETAMOB =      2 
   UP =      0 
   LPA =      1 
   UA =    0.3 
   AUA =      0 
   BUA =  1e-07 
   EU =    1.8 
   AEU =      0 
   BEU =  1e-07 
   UD =      0 
   AUD =      0 
   BUD =  5e-08 
   UCS =      0 
   UTE =      0 
   UTL = -0.0015 
   UA1 = 0.001032 
   UD1 =      0 
   UCSTE = -0.00478 
   RDSWMIN =      0 
   RDSW =    100 
   ARDSW =      0 
   BRDSW =  1e-07 
   RSWMIN =      0 
   RSW =      0 
   ARSW =      0 
   BRSW =  1e-07 
   RDWMIN =      0 
   RDW =      0 
   ARDW =      0 
   BRDW =  1e-07 
   PRWG =      0 
   WR =      1 
   PRT =  0.001 
   PDIBL1 =    1.3 
   PDIBL2 = 0.0002 
   DROUT =   1.06 
   PVAG =      1 
   PCLM =    0.2 
   APCLM =      0 
   BPCLM =  1e-07 
   PCLMG =      0 
   VASAT =    0.6 
   PCLMCV =  0.013 
   PCLMGCV =      0 
   VASATCV =    0.2 
   RGEXT =      0 ohm
   RGFIN =  0.001 ohm
   RSHS =      0 ohm
   RSHD =      0 ohm
   HEPI = 9.5e-09 m
   TSILI =  9e-09 m
   RHOC =  2e-12 ohm/m^2
   RHORSD =      1 ohm/m
   RHOEXT =      1 ohm/m
   CRATIO =    0.5 
   DELTAPRSD =      0 m
   SDTERM = 0 
   LSP =  4e-09 m
   LDG =  3e-09 m
   EPSRSP =    3.9 
   TGATE =  9e-09 m
   TMASK =      0 m
   ASILIEND =      0 m^2
   ARSDEND =      0 m^2
   PRSDEND =      0 m
   NSDE =  3e+25 m^-3
   RGEOA =      1 
   RGEOB =      0 m^-1
   RGEOC =      0 m^-1
   RGEOD =      0 m^-1
   RGEOE =      0 m^-1
   CGEOA =      1 
   CGEOB =      0 m^-1
   CGEOC =      0 m^-1
   CGEOD =      0 m^-1
   CGEOE =      1 
   AIGBINV = 0.0111 (Fs^2/g)^0.5m^-1
   BIGBINV =   0.03 (Fs^2/g)^0.5m^-1
   CIGBINV =  0.006 V^-1
   EIGBINV =    1.1 V
   NIGBINV =    1.2 
   AIGBACC = 0.0149 
   BIGBACC = 0.000949 
   CIGBACC =  0.075 
   NIGBACC =      3 
   AIGC = 0.0136 (Fs^2/g)^0.5m^-1
   BIGC = 0.00171 (Fs^2/g)^0.5m^-1V^-1
   CIGC =  0.075 V^-1
   NIGC =      1 
   DLCIGS =      0 m
   AIGS = 0.0136 (Fs^2/g)^0.5m^-1
   BIGS = 0.00171 (Fs^2/g)^0.5m^-1V^-1
   CIGS =  0.075 V^-1
   DLCIGD =      0 m
   AIGD = 0.0136 (Fs^2/g)^0.5m^-1
   BIGD = 0.00171 (Fs^2/g)^0.5m^-1V^-1
   CIGD =  0.075 V^-1
   POXEDGE =      1 
   AGIDL = 5.729e-12 ohm^-1
   BGIDL =  3e+08 V/m
   EGIDL =    0.1 V
   AGISL = 5.729e-12 ohm^-1
   BGISL =  3e+08 V/m
   EGISL =    0.1 V
   ALPHA0 =      0 mV^-1
   ALPHA1 =      0 V^-1
   BETA0 =     30 V^-1
   ALPHAII =      0 
   BETAII0 =      0 V^-1
   BETAII1 =      0 
   BETAII2 =    0.1 V
   ESATII =  1e+07 V/m
   LII =  5e-10 V/m
   SII0 =    0.5 V^-1
   SII1 =    0.1 
   SII2 =      0 V
   SIID =      0 V
   EOTACC =  1e-09 m
   DELVFBACC =      0 V
   CFS = 2.56e-11 F/m
   CFD = 2.65e-11 F/m
   COVS = 2.5e-11 F/m
   COVD = 2.5e-11 F/m
   CGSO =      0 F/m
   CGDO =      0 F/m
   CGSL =      0 F/m
   CGDL =      0 F/m
   CKAPPAS =    0.6 V
   CKAPPAD =    0.6 V
   CGBO =      0 F/m
   CGBL =      0 F/m
   CKAPPAB =    0.6 V
   CSDESW =      0 F/m
   CJS = 0.0005 F/m^2
   CJD = 0.0005 F/m^2
   CJSWS =  5e-10 F/m
   CJSWD =  5e-10 F/m
   CJSWGS =      0 F/m
   CJSWGD =      0 F/m
   PBS =      1 V
   PBD =      1 V
   PBSWS =      1 V
   PBSWD =      1 V
   PBSWGS =      1 V
   PBSWGD =      1 V
   MJS, =    0.5 
   MJD =    0.5 
   MJSWS =   0.33 
   MJSWD =   0.33 
   MJSWGS =   0.33 
   MJSWGD =   0.33 
   SJS =      0 
   SJD =      0 
   SJSWS =      0 
   SJSWD =      0 
   SJSWGS =      0 
   SJSWGD =      0 
   MJS2 =  0.125 
   MJD2 =  0.125 
   MJSWS2 =   0.33 
   MJSWD2 =   0.33 
   MJSWGS2 =   0.33 
   MJSWGD2 =   0.33 
   JSS = 0.0001 A/m^2
   JSD = 0.0001 A/m^2
   JSWS =      0 A/m
   JSWD =      0 A/m
   JSWGS =      0 A/m
   JSWGD =      0 A/m
   NJS =      1 
   NJD =      1 
   IJTHSFWD =    0.1 A
   IJTHDFWD =    0.1 A
   IJTHSREV =    0.1 A
   IJTHDREV =    0.1 A
   BVS =     10 V
   BVD =     10 V
   XJBVS =      1 
   XJBVD =      1 
   JTSS =      0 A/m^2
   JTSD =      0 A/m^2
   JTSSWS =      0 A/m
   JTSSWD =      0 A/m
   JTSSWGS =      0 A/m
   JTSSWGD =      0 A/m
   JTWEFF =      0 m
   NJTS =     20 
   NJTSD =     20 
   NJTSSW =     20 
   NJTSSWD =     20 
   NJTSSWG =     20 
   NJTSSWGD =     20 
   VTSS =     10 V
   VTSD =     10 V
   VTSSWS =     10 V
   VTSSWD =     10 V
   VTSSWGS =     10 V
   VTSSWGD =     10 V
   LINTIGEN =      0 m
   NTGEN =      1 
   AIGEN =      0 m^-3V^-1
   BIGEN =      0 m^-3V^-3
   XRCRG1 =     12 
   XRCRG2 =      1 
   NSEG = 5 
   EF =      1 
   EM = 4.1e+07 V/m
   NOIA = 6.25e+39 eV^-1s^1-EFm^-3
   NOIB = 3.125e+24 eV^-1s^1-EFm^-1
   NOIC = 8.75e+07 eV^-1s^1-EFm
   NTNOI =      1 
   TNOM =  300.1 K
   TBGASUB = 0.000702 eV/K
   TBGBSUB =   1108 K
   KT1 =      0 V
   KT1L =      0 Vm
   IIT =   -0.5 
   TII =      0 
   TGIDL = -0.0003 K^-1
   IGT =    2.5 
   TCJ =      0 K^-1
   TCJSW =      0 K^-1
   TCJSWG =      0 K^-1
   TPB =      0 K^-1
   TPBSW =      0 K^-1
   TPBSWG =      0 K^-1
   XTIS =      3 
   XTID =      3 
   XTSS =   0.02 
   XTSD =   0.02 
   XTSSWS =   0.02 
   XTSSWD =   0.02 
   XTSSWGS =   0.02 
   XTSSWGD =   0.02 
   TNJTS =      0 
   TNJTSD =      0 
   TNJTSSW =      0 
   TNJTSSWD =      0 
   TNJTSSWG =      0 
   TNJTSSWGD =      0 
   RTH0 =   0.01 ohm
   CTH0 =  1e-05 F
   WTH0 =      0 m
   LNBODY =      0 
   NNBODY =      0 
   PNBODY =      0 
   LPHIG =      0 
   NPHIG =      0 
   PPHIG =      0 
   LNGATE =      0 
   NNGATE =      0 
   PNGATE =      0 
   LCIT =      0 
   NCIT =      0 
   PCIT =      0 
   LCDSC =      0 
   NCDSC =      0 
   PCDSC =      0 
   LCDSCD =      0 
   NCDSCD =      0 
   PCDSCD =      0 
   LCDSCDR =      0 
   NCDSCDR =      0 
   PCDSCDR =      0 
   LDVT0 =      0 
   NDVT0 =      0 
   PDVT0 =      0 
   LDVT1 =      0 
   NDVT1 =      0 
   PDVT1 =      0 
   LPHIN =      0 
   NPHIN =      0 
   PPHIN =      0 
   LETA0 =      0 
   NETA0 =      0 
   PETA0 =      0 
   LETA0R =      0 
   NETA0R =      0 
   PETA0R =      0 
   LDSUB =      0 
   NDSUB =      0 
   PDSUB =      0 
   LK1RSCE =      0 
   NK1RSCE =      0 
   PK1RSCE =      0 
   LLPE0 =      0 
   NLPE0 =      0 
   PLPE0 =      0 
   LQMFACTOR =      0 
   NQMFACTOR =      0 
   PQMFACTOR =      0 
   LQMTCENIV =      0 
   NQMTCENIV =      0 
   PQMTCENIV =      0 
   LQMTCENCV =      0 
   NQMTCENCV =      0 
   PQMTCENCV =      0 
   LVSAT =      0 
   NVSAT =      0 
   PVSAT =      0 
   LKSATIV =      0 
   NKSATIV =      0 
   PKSATIV =      0 
   LMEXP =      0 
   NMEXP =      0 
   PMEXP =      0 
   LPTWG =      0 
   NPTWG =      0 
   PPTWG =      0 
   LTHETASAT =      0 
   NTHETASAT =      0 
   PTHETASAT =      0 
   LU0 =      0 
   NU0 =      0 
   PU0 =      0 
   LUP =      0 
   NUP =      0 
   PUP =      0 
   LUA =      0 
   NUA =      0 
   PUA =      0 
   LEU =      0 
   NEU =      0 
   PEU =      0 
   LUD =      0 
   NUD =      0 
   PUD =      0 
   LUCS =      0 
   NUCS =      0 
   PUCS =      0 
   LPCLM =      0 
   NPCLM =      0 
   PPCLM =      0 
   LPCLMCV =      0 
   NPCLMCV =      0 
   PPCLMCV =      0 
   LRDSW =      0 
   NRDSW =      0 
   PRDSW =      0 
   LRSW =      0 
   NRSW =      0 
   PRSW =      0 
   LRDW =      0 
   NRDW =      0 
   PRDW =      0 
   LPRWG =      0 
   NPRWG =      0 
   PPRWG =      0 
   LWR =      0 
   NWR =      0 
   PWR =      0 
   LPDIBL1 =      0 
   NPDIBL1 =      0 
   PPDIBL1 =      0 
   LPDIBL2 =      0 
   NPDIBL2 =      0 
   PPDIBL2 =      0 
   LDROUT =      0 
   NDROUT =      0 
   PDROUT =      0 
   LPVAG =      0 
   NPVAG =      0 
   PPVAG =      0 
   LAIGBINV =      0 
   NAIGBINV =      0 
   PAIGBINV =      0 
   LBIGBINV =      0 
   NBIGBINV =      0 
   PBIGBINV =      0 
   LCIGBINV =      0 
   NCIGBINV =      0 
   PCIGBINV =      0 
   LEIGBINV =      0 
   NEIGBINV =      0 
   PEIGBINV =      0 
   LNIGBINV =      0 
   NNIGBINV =      0 
   PNIGBINV =      0 
   LAIGC =      0 
   NAIGC =      0 
   PAIGC =      0 
   LBIGC =      0 
   NBIGC =      0 
   PBIGC =      0 
   LCIGC =      0 
   NCIGC =      0 
   PCIGC =      0 
   LNIGC =      0 
   NNIGC =      0 
   PNIGC =      0 
   LAIGS =      0 
   NAIGS =      0 
   PAIGS =      0 
   LBIGS =      0 
   NBIGS =      0 
   PBIGS =      0 
   LCIGS =      0 
   NCIGS =      0 
   PCIGS =      0 
   LAIGD =      0 
   NAIGD =      0 
   PAIGD =      0 
   LBIGD =      0 
   NBIGD =      0 
   PBIGD =      0 
   LCIGD =      0 
   NCIGD =      0 
   PCIGD =      0 
   LPOXEDGE =      0 
   NPOXEDGE =      0 
   PPOXEDGE =      0 
   LAGIDL =      0 
   NAGIDL =      0 
   PAGIDL =      0 
   LBGIDL =      0 
   NBGIDL =      0 
   PBGIDL =      0 
   LEGIDL =      0 
   NEGIDL =      0 
   PEGIDL =      0 
   LAGISL =      0 
   NAGISL =      0 
   PAGISL =      0 
   LBGISL =      0 
   NBGISL =      0 
   PBGISL =      0 
   LEGISL =      0 
   NEGISL =      0 
   PEGISL =      0 
   LALPHA0 =      0 
   NALPHA0 =      0 
   PALPHA0 =      0 
   LALPHA1 =      0 
   NALPHA1 =      0 
   PALPHA1 =      0 
   LBETA0 =      0 
   NBETA0 =      0 
   PBETA0 =      0 
   LALPHAII =      0 
   NALPHAII =      0 
   PALPHAII =      0 
   LBETAII0 =      0 
   NBETAII0 =      0 
   PBETAII0 =      0 
   LBETAII1 =      0 
   NBETAII1 =      0 
   PBETAII1 =      0 
   LBETAII2 =      0 
   NBETAII2 =      0 
   PBETAII2 =      0 
   LESATII =      0 
   NESATII =      0 
   PESATII =      0 
   LLII =      0 
   NLII =      0 
   PLII =      0 
   LSII0 =      0 
   NSII0 =      0 
   PSII0 =      0 
   LSII1 =      0 
   NSII1 =      0 
   PSII1 =      0 
   LSII2 =      0 
   NSII2 =      0 
   PSII2 =      0 
   LSIID =      0 
   NSIID =      0 
   PSIID =      0 
   LCFS =      0 
   NCFS =      0 
   PCFS =      0 
   LCFD =      0 
   NCFD =      0 
   PCFD =      0 
   LCOVS =      0 
   NCOVS =      0 
   PCOVS =      0 
   LCOVD =      0 
   NCOVD =      0 
   PCOVD =      0 
   LCGSL =      0 
   NCGSL =      0 
   PCGSL =      0 
   LCGDL =      0 
   NCGDL =      0 
   PCGDL =      0 
   LCKAPPAS =      0 
   NCKAPPAS =      0 
   PCKAPPAS =      0 
   LCKAPPAD =      0 
   NCKAPPAD =      0 
   PCKAPPAD =      0 
   LCGBL =      0 
   NCGBL =      0 
   PCGBL =      0 
   LCKAPPAB =      0 
   NCKAPPAB =      0 
   PCKAPPAB =      0 
   LNTGEN =      0 
   NNTGEN =      0 
   PNTGEN =      0 
   LAIGEN =      0 
   NAIGEN =      0 
   PAIGEN =      0 
   LBIGEN =      0 
   NBIGEN =      0 
   PBIGEN =      0 
   LXRCRG1 =      0 
   NXRCRG1 =      0 
   PXRCRG1 =      0 
   LXRCRG2 =      0 
   NXRCRG2 =      0 
   PXRCRG2 =      0 
   LINTNOI =      0 
   NINTNOI =      0 
   PINTNOI =      0 
   LUTE =      0 
   NUTE =      0 
   PUTE =      0 
   LUTL =      0 
   NUTL =      0 
   PUTL =      0 
   LUA1 =      0 
   NUA1 =      0 
   PUA1 =      0 
   LUD1 =      0 
   NUD1 =      0 
   PUD1 =      0 
   LUCSTE =      0 
   NUCSTE =      0 
   PUCSTE =      0 
   LPTWGT =      0 
   NPTWGT =      0 
   PPTWGT =      0 
   LAT =      0 
   NAT =      0 
   PAT =      0 
   LSTTHETASAT =      0 
   NSTTHETASAT =      0 
   PSTTHETASAT =      0 
   LPRT =      0 
   NPRT =      0 
   PPRT =      0 
   LIIT =      0 
   NIIT =      0 
   PIIT =      0 
   LTII =      0 
   NTII =      0 
   PTII =      0 
   LTGIDL =      0 
   NTGIDL =      0 
   PTGIDL =      0 
   LIGT =      0 
   NIGT =      0 
   PIGT =      0 
   L =  2e-08 m
   D =  4e-08 m
   TFIN = 1.2e-08 m
   FPITCH = 4.2e-08 m
   NF = 1 
   NFIN = 1 
   NGCON = 1 
   ASEO =      0 m^2
   ADEO =      0 m^2
   PSEO =      0 m
   PDEO =      0 m
   ASEJ =      0 m^2
   ADEJ =      0 m^2
   PSEJ =      0 m
   PDEJ =      0 m
   CGSP =      0 F
   CGDP =      0 F
   CDSP =      0 F
   NRS =      0 
   NRD =      0 
   LRSD =  2e-08 m
   XL =      0 m
   DELVTRAND =      0 
   U0MULT =      1 
   IDS0MULT =      1 
   Lmin =  1e-08 m
   Lmax =  3e-08 m
   NFINmin = 0 
   NFINmax = 1 
   LVSAT1 =      0 
   NVSAT1 =      0 
   PVSAT1 =      0 
   LETAMOB =      0 
   NETAMOB =      0 
   PETAMOB =      0 
   LPCLMG =      0 
   NPCLMG =      0 
   PPCLMG =      0 
   LVASAT =      0 
   NVASAT =      0 
   PVASAT =      0 
   LAIGBACC =      0 
   NAIGBACC =      0 
   PAIGBACC =      0 
   LBIGBACC =      0 
   NBIGBACC =      0 
   PBIGBACC =      0 
   LCIGBACC =      0 
   NCIGBACC =      0 
   PCIGBACC =      0 
   LNIGBACC =      0 
   NNIGBACC =      0 
   PNIGBACC =      0 
 Model Name: nfet 
 BSIM-MG BULK Model(Level72)
   VERSION = 105.03  
   DEVTYPE = 1 
   BULKMOD = 1  
   COREMOD = 0 
   GEOMOD = 1 
   RDSMOD = 1 
   IGCMOD = 1 
   IGBMOD = 1 
   GIDLMOD = 0 
   IIMOD = 0 
   NQSMOD = 0 
   SHMOD = 0 
   RGATEMOD = 0 
   RGEOMOD = 1 
   CGEOMOD = 2 
   CAPMOD = 0 
   LINT = -1e-09 m
   LL =      0 m^(LLN+1)
   LLN =      1 
   DLC =      0 m
   DLBIN =      0 
   LLC =      0 m^(LLN+1)
   EOT =  1e-09 m
   TOXP = 1.35e-09 m
   EOTBOX = 1.4e-07 m
   HFIN = 2.6e-08 m
   FECH =      1 
   DELTAW =      0 m
   FECHCV =      1 
   DELTAWCV =      0 m
   NBODY =  1e+23 m^-3
   NSD =  3e+26 m^-3
   PHIG =  4.589 eV
   EPSROX =    3.9 
   EPSRSUB =   11.9 
   EASUB =   4.05 eV
   NI0SUB = 1.1e+16 m^-3
   BG0SUB =   1.12 eV
   NC0SUB = 2.86e+25 m^-3
   NGATE =      0 m^-3
   CIT = 1.3e-05 F/m^2
   CDSC =  0.021 F/m^2
   CDSCD =  0.007 F/m^2
   CDSCDR =  0.007 
   DVT0 =   0.01 
   DVT1 =   0.69 
   PHIN =   0.05 V
   ETA0 = 0.7358 
   ETA0R = 0.7358 
   DSUB =    0.9 
   K1RSCE =      0 V^1/2
   LPE0 =  5e-09 m
   DVTSHIFT =      0 
   QMFACTOR =      0 
   QMTCENIV =      0 
   QMTCENCV =      0 
   AQMTCEN =      0 
   BQMTCEN = 1.2e-08 
   ETAQM =   0.54 
   QM0 = 0.001143 
   PQM =   0.66 
   QM0ACC =  0.001 
   PQMACC =   0.66 
   VSAT =  9e+04 
   AVSAT =      0 
   BVSAT =  1e-07 
   VSAT1 =  9e+04 
   AVSAT1 =      0 
   BVSAT1 =  1e-07 
   DELTAVSAT =      1 
   KSATIV =    0.8 
   MEXP =      3 
   AMEXP =      0 
   BMEXP =      1 
   PTWG =      0 
   APTWG =      0 
   BPTWG =  1e-07 
   AT = -0.00156 
   TMEXP =      0 
   PTWGT =  0.004 
   U0 = 0.0448 
   ETAMOB =      2 
   UP =      0 
   LPA =      1 
   UA =    0.3 
   AUA =      0 
   BUA =  1e-07 
   EU =    1.8 
   AEU =      0 
   BEU =  1e-07 
   UD =      0 
   AUD =      0 
   BUD =  5e-08 
   UCS =      0 
   UTE =      0 
   UTL = -0.0015 
   UA1 = 0.001032 
   UD1 =      0 
   UCSTE = -0.00478 
   RDSWMIN =      0 
   RDSW =    100 
   ARDSW =      0 
   BRDSW =  1e-07 
   RSWMIN =      0 
   RSW =      0 
   ARSW =      0 
   BRSW =  1e-07 
   RDWMIN =      0 
   RDW =      0 
   ARDW =      0 
   BRDW =  1e-07 
   PRWG =      0 
   WR =      1 
   PRT =  0.001 
   PDIBL1 =    1.3 
   PDIBL2 = 0.0002 
   DROUT =   1.06 
   PVAG =      1 
   PCLM =    0.2 
   APCLM =      0 
   BPCLM =  1e-07 
   PCLMG =      0 
   VASAT =    0.6 
   PCLMCV =  0.013 
   PCLMGCV =      0 
   VASATCV =    0.2 
   RGEXT =      0 ohm
   RGFIN =  0.001 ohm
   RSHS =      0 ohm
   RSHD =      0 ohm
   HEPI = 9.5e-09 m
   TSILI =  9e-09 m
   RHOC = 1.5e-12 ohm/m^2
   RHORSD =      1 ohm/m
   RHOEXT =      1 ohm/m
   CRATIO =    0.5 
   DELTAPRSD =      0 m
   SDTERM = 0 
   LSP =  4e-09 m
   LDG =  3e-09 m
   EPSRSP =    3.9 
   TGATE =  9e-09 m
   TMASK =      0 m
   ASILIEND =      0 m^2
   ARSDEND =      0 m^2
   PRSDEND =      0 m
   NSDE =  3e+25 m^-3
   RGEOA =      1 
   RGEOB =      0 m^-1
   RGEOC =      0 m^-1
   RGEOD =      0 m^-1
   RGEOE =      0 m^-1
   CGEOA =      1 
   CGEOB =      0 m^-1
   CGEOC =      0 m^-1
   CGEOD =      0 m^-1
   CGEOE =      1 
   AIGBINV = 0.0111 (Fs^2/g)^0.5m^-1
   BIGBINV =   0.03 (Fs^2/g)^0.5m^-1
   CIGBINV =  0.006 V^-1
   EIGBINV =    1.1 V
   NIGBINV =    1.2 
   AIGBACC = 0.0149 
   BIGBACC = 0.000949 
   CIGBACC =  0.075 
   NIGBACC =      3 
   AIGC = 0.0136 (Fs^2/g)^0.5m^-1
   BIGC = 0.00171 (Fs^2/g)^0.5m^-1V^-1
   CIGC =  0.075 V^-1
   NIGC =      1 
   DLCIGS =      0 m
   AIGS = 0.0136 (Fs^2/g)^0.5m^-1
   BIGS = 0.00171 (Fs^2/g)^0.5m^-1V^-1
   CIGS =  0.075 V^-1
   DLCIGD =      0 m
   AIGD = 0.0136 (Fs^2/g)^0.5m^-1
   BIGD = 0.00171 (Fs^2/g)^0.5m^-1V^-1
   CIGD =  0.075 V^-1
   POXEDGE =      1 
   AGIDL = 5.729e-12 ohm^-1
   BGIDL =  3e+08 V/m
   EGIDL =    0.1 V
   AGISL = 5.729e-12 ohm^-1
   BGISL =  3e+08 V/m
   EGISL =    0.1 V
   ALPHA0 =      0 mV^-1
   ALPHA1 =      0 V^-1
   BETA0 =     30 V^-1
   ALPHAII =      0 
   BETAII0 =      0 V^-1
   BETAII1 =      0 
   BETAII2 =    0.1 V
   ESATII =  1e+07 V/m
   LII =  5e-10 V/m
   SII0 =    0.5 V^-1
   SII1 =    0.1 
   SII2 =      0 V
   SIID =      0 V
   EOTACC =  1e-09 m
   DELVFBACC =      0 V
   CFS = 2.56e-11 F/m
   CFD = 2.65e-11 F/m
   COVS = 2.5e-11 F/m
   COVD = 2.5e-11 F/m
   CGSO =      0 F/m
   CGDO =      0 F/m
   CGSL =      0 F/m
   CGDL =      0 F/m
   CKAPPAS =    0.6 V
   CKAPPAD =    0.6 V
   CGBO =      0 F/m
   CGBL =      0 F/m
   CKAPPAB =    0.6 V
   CSDESW =      0 F/m
   CJS = 0.0005 F/m^2
   CJD = 0.0005 F/m^2
   CJSWS =  5e-10 F/m
   CJSWD =  5e-10 F/m
   CJSWGS =      0 F/m
   CJSWGD =      0 F/m
   PBS =      1 V
   PBD =      1 V
   PBSWS =      1 V
   PBSWD =      1 V
   PBSWGS =      1 V
   PBSWGD =      1 V
   MJS, =    0.5 
   MJD =    0.5 
   MJSWS =   0.33 
   MJSWD =   0.33 
   MJSWGS =   0.33 
   MJSWGD =   0.33 
   SJS =      0 
   SJD =      0 
   SJSWS =      0 
   SJSWD =      0 
   SJSWGS =      0 
   SJSWGD =      0 
   MJS2 =  0.125 
   MJD2 =  0.125 
   MJSWS2 =   0.33 
   MJSWD2 =   0.33 
   MJSWGS2 =   0.33 
   MJSWGD2 =   0.33 
   JSS = 0.0001 A/m^2
   JSD = 0.0001 A/m^2
   JSWS =      0 A/m
   JSWD =      0 A/m
   JSWGS =      0 A/m
   JSWGD =      0 A/m
   NJS =      1 
   NJD =      1 
   IJTHSFWD =    0.1 A
   IJTHDFWD =    0.1 A
   IJTHSREV =    0.1 A
   IJTHDREV =    0.1 A
   BVS =     10 V
   BVD =     10 V
   XJBVS =      1 
   XJBVD =      1 
   JTSS =      0 A/m^2
   JTSD =      0 A/m^2
   JTSSWS =      0 A/m
   JTSSWD =      0 A/m
   JTSSWGS =      0 A/m
   JTSSWGD =      0 A/m
   JTWEFF =      0 m
   NJTS =     20 
   NJTSD =     20 
   NJTSSW =     20 
   NJTSSWD =     20 
   NJTSSWG =     20 
   NJTSSWGD =     20 
   VTSS =     10 V
   VTSD =     10 V
   VTSSWS =     10 V
   VTSSWD =     10 V
   VTSSWGS =     10 V
   VTSSWGD =     10 V
   LINTIGEN =      0 m
   NTGEN =      1 
   AIGEN =      0 m^-3V^-1
   BIGEN =      0 m^-3V^-3
   XRCRG1 =     12 
   XRCRG2 =      1 
   NSEG = 5 
   EF =      1 
   EM = 4.1e+07 V/m
   NOIA = 6.25e+39 eV^-1s^1-EFm^-3
   NOIB = 3.125e+24 eV^-1s^1-EFm^-1
   NOIC = 8.75e+07 eV^-1s^1-EFm
   NTNOI =      1 
   TNOM =  300.1 K
   TBGASUB = 0.000702 eV/K
   TBGBSUB =   1108 K
   KT1 =      0 V
   KT1L =      0 Vm
   IIT =   -0.5 
   TII =      0 
   TGIDL = -0.0003 K^-1
   IGT =    2.5 
   TCJ =      0 K^-1
   TCJSW =      0 K^-1
   TCJSWG =      0 K^-1
   TPB =      0 K^-1
   TPBSW =      0 K^-1
   TPBSWG =      0 K^-1
   XTIS =      3 
   XTID =      3 
   XTSS =   0.02 
   XTSD =   0.02 
   XTSSWS =   0.02 
   XTSSWD =   0.02 
   XTSSWGS =   0.02 
   XTSSWGD =   0.02 
   TNJTS =      0 
   TNJTSD =      0 
   TNJTSSW =      0 
   TNJTSSWD =      0 
   TNJTSSWG =      0 
   TNJTSSWGD =      0 
   RTH0 =   0.01 ohm
   CTH0 =  1e-05 F
   WTH0 =      0 m
   LNBODY =      0 
   NNBODY =      0 
   PNBODY =      0 
   LPHIG =      0 
   NPHIG =      0 
   PPHIG =      0 
   LNGATE =      0 
   NNGATE =      0 
   PNGATE =      0 
   LCIT =      0 
   NCIT =      0 
   PCIT =      0 
   LCDSC =      0 
   NCDSC =      0 
   PCDSC =      0 
   LCDSCD =      0 
   NCDSCD =      0 
   PCDSCD =      0 
   LCDSCDR =      0 
   NCDSCDR =      0 
   PCDSCDR =      0 
   LDVT0 =      0 
   NDVT0 =      0 
   PDVT0 =      0 
   LDVT1 =      0 
   NDVT1 =      0 
   PDVT1 =      0 
   LPHIN =      0 
   NPHIN =      0 
   PPHIN =      0 
   LETA0 =      0 
   NETA0 =      0 
   PETA0 =      0 
   LETA0R =      0 
   NETA0R =      0 
   PETA0R =      0 
   LDSUB =      0 
   NDSUB =      0 
   PDSUB =      0 
   LK1RSCE =      0 
   NK1RSCE =      0 
   PK1RSCE =      0 
   LLPE0 =      0 
   NLPE0 =      0 
   PLPE0 =      0 
   LQMFACTOR =      0 
   NQMFACTOR =      0 
   PQMFACTOR =      0 
   LQMTCENIV =      0 
   NQMTCENIV =      0 
   PQMTCENIV =      0 
   LQMTCENCV =      0 
   NQMTCENCV =      0 
   PQMTCENCV =      0 
   LVSAT =      0 
   NVSAT =      0 
   PVSAT =      0 
   LKSATIV =      0 
   NKSATIV =      0 
   PKSATIV =      0 
   LMEXP =      0 
   NMEXP =      0 
   PMEXP =      0 
   LPTWG =      0 
   NPTWG =      0 
   PPTWG =      0 
   LTHETASAT =      0 
   NTHETASAT =      0 
   PTHETASAT =      0 
   LU0 =      0 
   NU0 =      0 
   PU0 =      0 
   LUP =      0 
   NUP =      0 
   PUP =      0 
   LUA =      0 
   NUA =      0 
   PUA =      0 
   LEU =      0 
   NEU =      0 
   PEU =      0 
   LUD =      0 
   NUD =      0 
   PUD =      0 
   LUCS =      0 
   NUCS =      0 
   PUCS =      0 
   LPCLM =      0 
   NPCLM =      0 
   PPCLM =      0 
   LPCLMCV =      0 
   NPCLMCV =      0 
   PPCLMCV =      0 
   LRDSW =      0 
   NRDSW =      0 
   PRDSW =      0 
   LRSW =      0 
   NRSW =      0 
   PRSW =      0 
   LRDW =      0 
   NRDW =      0 
   PRDW =      0 
   LPRWG =      0 
   NPRWG =      0 
   PPRWG =      0 
   LWR =      0 
   NWR =      0 
   PWR =      0 
   LPDIBL1 =      0 
   NPDIBL1 =      0 
   PPDIBL1 =      0 
   LPDIBL2 =      0 
   NPDIBL2 =      0 
   PPDIBL2 =      0 
   LDROUT =      0 
   NDROUT =      0 
   PDROUT =      0 
   LPVAG =      0 
   NPVAG =      0 
   PPVAG =      0 
   LAIGBINV =      0 
   NAIGBINV =      0 
   PAIGBINV =      0 
   LBIGBINV =      0 
   NBIGBINV =      0 
   PBIGBINV =      0 
   LCIGBINV =      0 
   NCIGBINV =      0 
   PCIGBINV =      0 
   LEIGBINV =      0 
   NEIGBINV =      0 
   PEIGBINV =      0 
   LNIGBINV =      0 
   NNIGBINV =      0 
   PNIGBINV =      0 
   LAIGC =      0 
   NAIGC =      0 
   PAIGC =      0 
   LBIGC =      0 
   NBIGC =      0 
   PBIGC =      0 
   LCIGC =      0 
   NCIGC =      0 
   PCIGC =      0 
   LNIGC =      0 
   NNIGC =      0 
   PNIGC =      0 
   LAIGS =      0 
   NAIGS =      0 
   PAIGS =      0 
   LBIGS =      0 
   NBIGS =      0 
   PBIGS =      0 
   LCIGS =      0 
   NCIGS =      0 
   PCIGS =      0 
   LAIGD =      0 
   NAIGD =      0 
   PAIGD =      0 
   LBIGD =      0 
   NBIGD =      0 
   PBIGD =      0 
   LCIGD =      0 
   NCIGD =      0 
   PCIGD =      0 
   LPOXEDGE =      0 
   NPOXEDGE =      0 
   PPOXEDGE =      0 
   LAGIDL =      0 
   NAGIDL =      0 
   PAGIDL =      0 
   LBGIDL =      0 
   NBGIDL =      0 
   PBGIDL =      0 
   LEGIDL =      0 
   NEGIDL =      0 
   PEGIDL =      0 
   LAGISL =      0 
   NAGISL =      0 
   PAGISL =      0 
   LBGISL =      0 
   NBGISL =      0 
   PBGISL =      0 
   LEGISL =      0 
   NEGISL =      0 
   PEGISL =      0 
   LALPHA0 =      0 
   NALPHA0 =      0 
   PALPHA0 =      0 
   LALPHA1 =      0 
   NALPHA1 =      0 
   PALPHA1 =      0 
   LBETA0 =      0 
   NBETA0 =      0 
   PBETA0 =      0 
   LALPHAII =      0 
   NALPHAII =      0 
   PALPHAII =      0 
   LBETAII0 =      0 
   NBETAII0 =      0 
   PBETAII0 =      0 
   LBETAII1 =      0 
   NBETAII1 =      0 
   PBETAII1 =      0 
   LBETAII2 =      0 
   NBETAII2 =      0 
   PBETAII2 =      0 
   LESATII =      0 
   NESATII =      0 
   PESATII =      0 
   LLII =      0 
   NLII =      0 
   PLII =      0 
   LSII0 =      0 
   NSII0 =      0 
   PSII0 =      0 
   LSII1 =      0 
   NSII1 =      0 
   PSII1 =      0 
   LSII2 =      0 
   NSII2 =      0 
   PSII2 =      0 
   LSIID =      0 
   NSIID =      0 
   PSIID =      0 
   LCFS =      0 
   NCFS =      0 
   PCFS =      0 
   LCFD =      0 
   NCFD =      0 
   PCFD =      0 
   LCOVS =      0 
   NCOVS =      0 
   PCOVS =      0 
   LCOVD =      0 
   NCOVD =      0 
   PCOVD =      0 
   LCGSL =      0 
   NCGSL =      0 
   PCGSL =      0 
   LCGDL =      0 
   NCGDL =      0 
   PCGDL =      0 
   LCKAPPAS =      0 
   NCKAPPAS =      0 
   PCKAPPAS =      0 
   LCKAPPAD =      0 
   NCKAPPAD =      0 
   PCKAPPAD =      0 
   LCGBL =      0 
   NCGBL =      0 
   PCGBL =      0 
   LCKAPPAB =      0 
   NCKAPPAB =      0 
   PCKAPPAB =      0 
   LNTGEN =      0 
   NNTGEN =      0 
   PNTGEN =      0 
   LAIGEN =      0 
   NAIGEN =      0 
   PAIGEN =      0 
   LBIGEN =      0 
   NBIGEN =      0 
   PBIGEN =      0 
   LXRCRG1 =      0 
   NXRCRG1 =      0 
   PXRCRG1 =      0 
   LXRCRG2 =      0 
   NXRCRG2 =      0 
   PXRCRG2 =      0 
   LINTNOI =      0 
   NINTNOI =      0 
   PINTNOI =      0 
   LUTE =      0 
   NUTE =      0 
   PUTE =      0 
   LUTL =      0 
   NUTL =      0 
   PUTL =      0 
   LUA1 =      0 
   NUA1 =      0 
   PUA1 =      0 
   LUD1 =      0 
   NUD1 =      0 
   PUD1 =      0 
   LUCSTE =      0 
   NUCSTE =      0 
   PUCSTE =      0 
   LPTWGT =      0 
   NPTWGT =      0 
   PPTWGT =      0 
   LAT =      0 
   NAT =      0 
   PAT =      0 
   LSTTHETASAT =      0 
   NSTTHETASAT =      0 
   PSTTHETASAT =      0 
   LPRT =      0 
   NPRT =      0 
   PPRT =      0 
   LIIT =      0 
   NIIT =      0 
   PIIT =      0 
   LTII =      0 
   NTII =      0 
   PTII =      0 
   LTGIDL =      0 
   NTGIDL =      0 
   PTGIDL =      0 
   LIGT =      0 
   NIGT =      0 
   PIGT =      0 
   L =  2e-08 m
   D =  4e-08 m
   TFIN = 1.2e-08 m
   FPITCH = 4.2e-08 m
   NF = 1 
   NFIN = 1 
   NGCON = 1 
   ASEO =      0 m^2
   ADEO =      0 m^2
   PSEO =      0 m
   PDEO =      0 m
   ASEJ =      0 m^2
   ADEJ =      0 m^2
   PSEJ =      0 m
   PDEJ =      0 m
   CGSP =      0 F
   CGDP =      0 F
   CDSP =      0 F
   NRS =      0 
   NRD =      0 
   LRSD =  2e-08 m
   XL =      0 m
   DELVTRAND =      0 
   U0MULT =      1 
   IDS0MULT =      1 
   Lmin =  1e-08 m
   Lmax =  3e-08 m
   NFINmin = 0 
   NFINmax = 1 
   LVSAT1 =      0 
   NVSAT1 =      0 
   PVSAT1 =      0 
   LETAMOB =      0 
   NETAMOB =      0 
   PETAMOB =      0 
   LPCLMG =      0 
   NPCLMG =      0 
   PPCLMG =      0 
   LVASAT =      0 
   NVASAT =      0 
   PVASAT =      0 
   LAIGBACC =      0 
   NAIGBACC =      0 
   PAIGBACC =      0 
   LBIGBACC =      0 
   NBIGBACC =      0 
   PBIGBACC =      0 
   LCIGBACC =      0 
   NCIGBACC =      0 
   PCIGBACC =      0 
   LNIGBACC =      0 
   NNIGBACC =      0 
   PNIGBACC =      0 
 Model Name: pfet 
 BSIM-MG BULK Model(Level72)
   VERSION = 105.03  
   DEVTYPE = -1 
   BULKMOD = 1  
   COREMOD = 0 
   GEOMOD = 1 
   RDSMOD = 1 
   IGCMOD = 1 
   IGBMOD = 1 
   GIDLMOD = 0 
   IIMOD = 0 
   NQSMOD = 0 
   SHMOD = 0 
   RGATEMOD = 0 
   RGEOMOD = 1 
   CGEOMOD = 2 
   CAPMOD = 0 
   LINT = -1e-09 m
   LL =      0 m^(LLN+1)
   LLN =      1 
   DLC =      0 m
   DLBIN =      0 
   LLC =      0 m^(LLN+1)
   EOT =  1e-09 m
   TOXP = 1.35e-09 m
   EOTBOX = 1.4e-07 m
   HFIN = 2.6e-08 m
   FECH =      1 
   DELTAW =      0 m
   FECHCV =      1 
   DELTAWCV =      0 m
   NBODY =  1e+23 m^-3
   NSD =  3e+26 m^-3
   PHIG =  4.588 eV
   EPSROX =    3.9 
   EPSRSUB =   11.9 
   EASUB =   4.05 eV
   NI0SUB = 1.1e+16 m^-3
   BG0SUB =   1.12 eV
   NC0SUB = 2.86e+25 m^-3
   NGATE =      0 m^-3
   CIT = 1.3e-05 F/m^2
   CDSC =  0.021 F/m^2
   CDSCD =  0.007 F/m^2
   CDSCDR =  0.007 
   DVT0 =   0.01 
   DVT1 =   0.69 
   PHIN =   0.05 V
   ETA0 = 0.9925 
   ETA0R = 0.9925 
   DSUB =    0.9 
   K1RSCE =      0 V^1/2
   LPE0 =  5e-09 m
   DVTSHIFT =      0 
   QMFACTOR =      0 
   QMTCENIV =      0 
   QMTCENCV =      0 
   AQMTCEN =      0 
   BQMTCEN = 1.2e-08 
   ETAQM =   0.54 
   QM0 = 0.001143 
   PQM =   0.66 
   QM0ACC =  0.001 
   PQMACC =   0.66 
   VSAT = 8.8e+04 
   AVSAT =      0 
   BVSAT =  1e-07 
   VSAT1 = 8.8e+04 
   AVSAT1 =      0 
   BVSAT1 =  1e-07 
   DELTAVSAT =      1 
   KSATIV =    0.8 
   MEXP =      3 
   AMEXP =      0 
   BMEXP =      1 
   PTWG =      0 
   APTWG =      0 
   BPTWG =  1e-07 
   AT = -0.00156 
   TMEXP =      0 
   PTWGT =  0.004 
   U0 =   0.03 
   ETAMOB =      2 
   UP =      0 
   LPA =      1 
   UA =    0.3 
   AUA =      0 
   BUA =  1e-07 
   EU =    1.8 
   AEU =      0 
   BEU =  1e-07 
   UD =      0 
   AUD =      0 
   BUD =  5e-08 
   UCS =      0 
   UTE =      0 
   UTL = -0.0015 
   UA1 = 0.001032 
   UD1 =      0 
   UCSTE = -0.00478 
   RDSWMIN =      0 
   RDSW =    100 
   ARDSW =      0 
   BRDSW =  1e-07 
   RSWMIN =      0 
   RSW =      0 
   ARSW =      0 
   BRSW =  1e-07 
   RDWMIN =      0 
   RDW =      0 
   ARDW =      0 
   BRDW =  1e-07 
   PRWG =      0 
   WR =      1 
   PRT =  0.001 
   PDIBL1 =    1.3 
   PDIBL2 = 0.0002 
   DROUT =   1.06 
   PVAG =      1 
   PCLM =    0.2 
   APCLM =      0 
   BPCLM =  1e-07 
   PCLMG =      0 
   VASAT =    0.6 
   PCLMCV =  0.013 
   PCLMGCV =      0 
   VASATCV =    0.2 
   RGEXT =      0 ohm
   RGFIN =  0.001 ohm
   RSHS =      0 ohm
   RSHD =      0 ohm
   HEPI = 9.5e-09 m
   TSILI =  9e-09 m
   RHOC =  2e-12 ohm/m^2
   RHORSD =      1 ohm/m
   RHOEXT =      1 ohm/m
   CRATIO =    0.5 
   DELTAPRSD =      0 m
   SDTERM = 0 
   LSP =  4e-09 m
   LDG =  3e-09 m
   EPSRSP =    3.9 
   TGATE =  9e-09 m
   TMASK =      0 m
   ASILIEND =      0 m^2
   ARSDEND =      0 m^2
   PRSDEND =      0 m
   NSDE =  3e+25 m^-3
   RGEOA =      1 
   RGEOB =      0 m^-1
   RGEOC =      0 m^-1
   RGEOD =      0 m^-1
   RGEOE =      0 m^-1
   CGEOA =      1 
   CGEOB =      0 m^-1
   CGEOC =      0 m^-1
   CGEOD =      0 m^-1
   CGEOE =      1 
   AIGBINV = 0.0111 (Fs^2/g)^0.5m^-1
   BIGBINV =   0.03 (Fs^2/g)^0.5m^-1
   CIGBINV =  0.006 V^-1
   EIGBINV =    1.1 V
   NIGBINV =    1.2 
   AIGBACC = 0.0149 
   BIGBACC = 0.000949 
   CIGBACC =  0.075 
   NIGBACC =      3 
   AIGC = 0.0136 (Fs^2/g)^0.5m^-1
   BIGC = 0.00171 (Fs^2/g)^0.5m^-1V^-1
   CIGC =  0.075 V^-1
   NIGC =      1 
   DLCIGS =      0 m
   AIGS = 0.0136 (Fs^2/g)^0.5m^-1
   BIGS = 0.00171 (Fs^2/g)^0.5m^-1V^-1
   CIGS =  0.075 V^-1
   DLCIGD =      0 m
   AIGD = 0.0136 (Fs^2/g)^0.5m^-1
   BIGD = 0.00171 (Fs^2/g)^0.5m^-1V^-1
   CIGD =  0.075 V^-1
   POXEDGE =      1 
   AGIDL = 5.729e-12 ohm^-1
   BGIDL =  3e+08 V/m
   EGIDL =    0.1 V
   AGISL = 5.729e-12 ohm^-1
   BGISL =  3e+08 V/m
   EGISL =    0.1 V
   ALPHA0 =      0 mV^-1
   ALPHA1 =      0 V^-1
   BETA0 =     30 V^-1
   ALPHAII =      0 
   BETAII0 =      0 V^-1
   BETAII1 =      0 
   BETAII2 =    0.1 V
   ESATII =  1e+07 V/m
   LII =  5e-10 V/m
   SII0 =    0.5 V^-1
   SII1 =    0.1 
   SII2 =      0 V
   SIID =      0 V
   EOTACC =  1e-09 m
   DELVFBACC =      0 V
   CFS = 2.56e-11 F/m
   CFD = 2.65e-11 F/m
   COVS = 2.5e-11 F/m
   COVD = 2.5e-11 F/m
   CGSO =      0 F/m
   CGDO =      0 F/m
   CGSL =      0 F/m
   CGDL =      0 F/m
   CKAPPAS =    0.6 V
   CKAPPAD =    0.6 V
   CGBO =      0 F/m
   CGBL =      0 F/m
   CKAPPAB =    0.6 V
   CSDESW =      0 F/m
   CJS = 0.0005 F/m^2
   CJD = 0.0005 F/m^2
   CJSWS =  5e-10 F/m
   CJSWD =  5e-10 F/m
   CJSWGS =      0 F/m
   CJSWGD =      0 F/m
   PBS =      1 V
   PBD =      1 V
   PBSWS =      1 V
   PBSWD =      1 V
   PBSWGS =      1 V
   PBSWGD =      1 V
   MJS, =    0.5 
   MJD =    0.5 
   MJSWS =   0.33 
   MJSWD =   0.33 
   MJSWGS =   0.33 
   MJSWGD =   0.33 
   SJS =      0 
   SJD =      0 
   SJSWS =      0 
   SJSWD =      0 
   SJSWGS =      0 
   SJSWGD =      0 
   MJS2 =  0.125 
   MJD2 =  0.125 
   MJSWS2 =   0.33 
   MJSWD2 =   0.33 
   MJSWGS2 =   0.33 
   MJSWGD2 =   0.33 
   JSS = 0.0001 A/m^2
   JSD = 0.0001 A/m^2
   JSWS =      0 A/m
   JSWD =      0 A/m
   JSWGS =      0 A/m
   JSWGD =      0 A/m
   NJS =      1 
   NJD =      1 
   IJTHSFWD =    0.1 A
   IJTHDFWD =    0.1 A
   IJTHSREV =    0.1 A
   IJTHDREV =    0.1 A
   BVS =     10 V
   BVD =     10 V
   XJBVS =      1 
   XJBVD =      1 
   JTSS =      0 A/m^2
   JTSD =      0 A/m^2
   JTSSWS =      0 A/m
   JTSSWD =      0 A/m
   JTSSWGS =      0 A/m
   JTSSWGD =      0 A/m
   JTWEFF =      0 m
   NJTS =     20 
   NJTSD =     20 
   NJTSSW =     20 
   NJTSSWD =     20 
   NJTSSWG =     20 
   NJTSSWGD =     20 
   VTSS =     10 V
   VTSD =     10 V
   VTSSWS =     10 V
   VTSSWD =     10 V
   VTSSWGS =     10 V
   VTSSWGD =     10 V
   LINTIGEN =      0 m
   NTGEN =      1 
   AIGEN =      0 m^-3V^-1
   BIGEN =      0 m^-3V^-3
   XRCRG1 =     12 
   XRCRG2 =      1 
   NSEG = 5 
   EF =      1 
   EM = 4.1e+07 V/m
   NOIA = 6.25e+39 eV^-1s^1-EFm^-3
   NOIB = 3.125e+24 eV^-1s^1-EFm^-1
   NOIC = 8.75e+07 eV^-1s^1-EFm
   NTNOI =      1 
   TNOM =  300.1 K
   TBGASUB = 0.000702 eV/K
   TBGBSUB =   1108 K
   KT1 =      0 V
   KT1L =      0 Vm
   IIT =   -0.5 
   TII =      0 
   TGIDL = -0.0003 K^-1
   IGT =    2.5 
   TCJ =      0 K^-1
   TCJSW =      0 K^-1
   TCJSWG =      0 K^-1
   TPB =      0 K^-1
   TPBSW =      0 K^-1
   TPBSWG =      0 K^-1
   XTIS =      3 
   XTID =      3 
   XTSS =   0.02 
   XTSD =   0.02 
   XTSSWS =   0.02 
   XTSSWD =   0.02 
   XTSSWGS =   0.02 
   XTSSWGD =   0.02 
   TNJTS =      0 
   TNJTSD =      0 
   TNJTSSW =      0 
   TNJTSSWD =      0 
   TNJTSSWG =      0 
   TNJTSSWGD =      0 
   RTH0 =   0.01 ohm
   CTH0 =  1e-05 F
   WTH0 =      0 m
   LNBODY =      0 
   NNBODY =      0 
   PNBODY =      0 
   LPHIG =      0 
   NPHIG =      0 
   PPHIG =      0 
   LNGATE =      0 
   NNGATE =      0 
   PNGATE =      0 
   LCIT =      0 
   NCIT =      0 
   PCIT =      0 
   LCDSC =      0 
   NCDSC =      0 
   PCDSC =      0 
   LCDSCD =      0 
   NCDSCD =      0 
   PCDSCD =      0 
   LCDSCDR =      0 
   NCDSCDR =      0 
   PCDSCDR =      0 
   LDVT0 =      0 
   NDVT0 =      0 
   PDVT0 =      0 
   LDVT1 =      0 
   NDVT1 =      0 
   PDVT1 =      0 
   LPHIN =      0 
   NPHIN =      0 
   PPHIN =      0 
   LETA0 =      0 
   NETA0 =      0 
   PETA0 =      0 
   LETA0R =      0 
   NETA0R =      0 
   PETA0R =      0 
   LDSUB =      0 
   NDSUB =      0 
   PDSUB =      0 
   LK1RSCE =      0 
   NK1RSCE =      0 
   PK1RSCE =      0 
   LLPE0 =      0 
   NLPE0 =      0 
   PLPE0 =      0 
   LQMFACTOR =      0 
   NQMFACTOR =      0 
   PQMFACTOR =      0 
   LQMTCENIV =      0 
   NQMTCENIV =      0 
   PQMTCENIV =      0 
   LQMTCENCV =      0 
   NQMTCENCV =      0 
   PQMTCENCV =      0 
   LVSAT =      0 
   NVSAT =      0 
   PVSAT =      0 
   LKSATIV =      0 
   NKSATIV =      0 
   PKSATIV =      0 
   LMEXP =      0 
   NMEXP =      0 
   PMEXP =      0 
   LPTWG =      0 
   NPTWG =      0 
   PPTWG =      0 
   LTHETASAT =      0 
   NTHETASAT =      0 
   PTHETASAT =      0 
   LU0 =      0 
   NU0 =      0 
   PU0 =      0 
   LUP =      0 
   NUP =      0 
   PUP =      0 
   LUA =      0 
   NUA =      0 
   PUA =      0 
   LEU =      0 
   NEU =      0 
   PEU =      0 
   LUD =      0 
   NUD =      0 
   PUD =      0 
   LUCS =      0 
   NUCS =      0 
   PUCS =      0 
   LPCLM =      0 
   NPCLM =      0 
   PPCLM =      0 
   LPCLMCV =      0 
   NPCLMCV =      0 
   PPCLMCV =      0 
   LRDSW =      0 
   NRDSW =      0 
   PRDSW =      0 
   LRSW =      0 
   NRSW =      0 
   PRSW =      0 
   LRDW =      0 
   NRDW =      0 
   PRDW =      0 
   LPRWG =      0 
   NPRWG =      0 
   PPRWG =      0 
   LWR =      0 
   NWR =      0 
   PWR =      0 
   LPDIBL1 =      0 
   NPDIBL1 =      0 
   PPDIBL1 =      0 
   LPDIBL2 =      0 
   NPDIBL2 =      0 
   PPDIBL2 =      0 
   LDROUT =      0 
   NDROUT =      0 
   PDROUT =      0 
   LPVAG =      0 
   NPVAG =      0 
   PPVAG =      0 
   LAIGBINV =      0 
   NAIGBINV =      0 
   PAIGBINV =      0 
   LBIGBINV =      0 
   NBIGBINV =      0 
   PBIGBINV =      0 
   LCIGBINV =      0 
   NCIGBINV =      0 
   PCIGBINV =      0 
   LEIGBINV =      0 
   NEIGBINV =      0 
   PEIGBINV =      0 
   LNIGBINV =      0 
   NNIGBINV =      0 
   PNIGBINV =      0 
   LAIGC =      0 
   NAIGC =      0 
   PAIGC =      0 
   LBIGC =      0 
   NBIGC =      0 
   PBIGC =      0 
   LCIGC =      0 
   NCIGC =      0 
   PCIGC =      0 
   LNIGC =      0 
   NNIGC =      0 
   PNIGC =      0 
   LAIGS =      0 
   NAIGS =      0 
   PAIGS =      0 
   LBIGS =      0 
   NBIGS =      0 
   PBIGS =      0 
   LCIGS =      0 
   NCIGS =      0 
   PCIGS =      0 
   LAIGD =      0 
   NAIGD =      0 
   PAIGD =      0 
   LBIGD =      0 
   NBIGD =      0 
   PBIGD =      0 
   LCIGD =      0 
   NCIGD =      0 
   PCIGD =      0 
   LPOXEDGE =      0 
   NPOXEDGE =      0 
   PPOXEDGE =      0 
   LAGIDL =      0 
   NAGIDL =      0 
   PAGIDL =      0 
   LBGIDL =      0 
   NBGIDL =      0 
   PBGIDL =      0 
   LEGIDL =      0 
   NEGIDL =      0 
   PEGIDL =      0 
   LAGISL =      0 
   NAGISL =      0 
   PAGISL =      0 
   LBGISL =      0 
   NBGISL =      0 
   PBGISL =      0 
   LEGISL =      0 
   NEGISL =      0 
   PEGISL =      0 
   LALPHA0 =      0 
   NALPHA0 =      0 
   PALPHA0 =      0 
   LALPHA1 =      0 
   NALPHA1 =      0 
   PALPHA1 =      0 
   LBETA0 =      0 
   NBETA0 =      0 
   PBETA0 =      0 
   LALPHAII =      0 
   NALPHAII =      0 
   PALPHAII =      0 
   LBETAII0 =      0 
   NBETAII0 =      0 
   PBETAII0 =      0 
   LBETAII1 =      0 
   NBETAII1 =      0 
   PBETAII1 =      0 
   LBETAII2 =      0 
   NBETAII2 =      0 
   PBETAII2 =      0 
   LESATII =      0 
   NESATII =      0 
   PESATII =      0 
   LLII =      0 
   NLII =      0 
   PLII =      0 
   LSII0 =      0 
   NSII0 =      0 
   PSII0 =      0 
   LSII1 =      0 
   NSII1 =      0 
   PSII1 =      0 
   LSII2 =      0 
   NSII2 =      0 
   PSII2 =      0 
   LSIID =      0 
   NSIID =      0 
   PSIID =      0 
   LCFS =      0 
   NCFS =      0 
   PCFS =      0 
   LCFD =      0 
   NCFD =      0 
   PCFD =      0 
   LCOVS =      0 
   NCOVS =      0 
   PCOVS =      0 
   LCOVD =      0 
   NCOVD =      0 
   PCOVD =      0 
   LCGSL =      0 
   NCGSL =      0 
   PCGSL =      0 
   LCGDL =      0 
   NCGDL =      0 
   PCGDL =      0 
   LCKAPPAS =      0 
   NCKAPPAS =      0 
   PCKAPPAS =      0 
   LCKAPPAD =      0 
   NCKAPPAD =      0 
   PCKAPPAD =      0 
   LCGBL =      0 
   NCGBL =      0 
   PCGBL =      0 
   LCKAPPAB =      0 
   NCKAPPAB =      0 
   PCKAPPAB =      0 
   LNTGEN =      0 
   NNTGEN =      0 
   PNTGEN =      0 
   LAIGEN =      0 
   NAIGEN =      0 
   PAIGEN =      0 
   LBIGEN =      0 
   NBIGEN =      0 
   PBIGEN =      0 
   LXRCRG1 =      0 
   NXRCRG1 =      0 
   PXRCRG1 =      0 
   LXRCRG2 =      0 
   NXRCRG2 =      0 
   PXRCRG2 =      0 
   LINTNOI =      0 
   NINTNOI =      0 
   PINTNOI =      0 
   LUTE =      0 
   NUTE =      0 
   PUTE =      0 
   LUTL =      0 
   NUTL =      0 
   PUTL =      0 
   LUA1 =      0 
   NUA1 =      0 
   PUA1 =      0 
   LUD1 =      0 
   NUD1 =      0 
   PUD1 =      0 
   LUCSTE =      0 
   NUCSTE =      0 
   PUCSTE =      0 
   LPTWGT =      0 
   NPTWGT =      0 
   PPTWGT =      0 
   LAT =      0 
   NAT =      0 
   PAT =      0 
   LSTTHETASAT =      0 
   NSTTHETASAT =      0 
   PSTTHETASAT =      0 
   LPRT =      0 
   NPRT =      0 
   PPRT =      0 
   LIIT =      0 
   NIIT =      0 
   PIIT =      0 
   LTII =      0 
   NTII =      0 
   PTII =      0 
   LTGIDL =      0 
   NTGIDL =      0 
   PTGIDL =      0 
   LIGT =      0 
   NIGT =      0 
   PIGT =      0 
   L =  2e-08 m
   D =  4e-08 m
   TFIN = 1.2e-08 m
   FPITCH = 4.2e-08 m
   NF = 1 
   NFIN = 1 
   NGCON = 1 
   ASEO =      0 m^2
   ADEO =      0 m^2
   PSEO =      0 m
   PDEO =      0 m
   ASEJ =      0 m^2
   ADEJ =      0 m^2
   PSEJ =      0 m
   PDEJ =      0 m
   CGSP =      0 F
   CGDP =      0 F
   CDSP =      0 F
   NRS =      0 
   NRD =      0 
   LRSD =  2e-08 m
   XL =      0 m
   DELVTRAND =      0 
   U0MULT =      1 
   IDS0MULT =      1 
   Lmin =  1e-08 m
   Lmax =  3e-08 m
   NFINmin = 0 
   NFINmax = 1 
   LVSAT1 =      0 
   NVSAT1 =      0 
   PVSAT1 =      0 
   LETAMOB =      0 
   NETAMOB =      0 
   PETAMOB =      0 
   LPCLMG =      0 
   NPCLMG =      0 
   PPCLMG =      0 
   LVASAT =      0 
   NVASAT =      0 
   PVASAT =      0 
   LAIGBACC =      0 
   NAIGBACC =      0 
   PAIGBACC =      0 
   LBIGBACC =      0 
   NBIGBACC =      0 
   PBIGBACC =      0 
   LCIGBACC =      0 
   NCIGBACC =      0 
   PCIGBACC =      0 
   LNIGBACC =      0 
   NNIGBACC =      0 
   PNIGBACC =      0 
 Model Name: nfet 
 BSIM-MG BULK Model(Level72)
   VERSION = 105.03  
   DEVTYPE = 1 
   BULKMOD = 1  
   COREMOD = 0 
   GEOMOD = 1 
   RDSMOD = 1 
   IGCMOD = 1 
   IGBMOD = 1 
   GIDLMOD = 0 
   IIMOD = 0 
   NQSMOD = 0 
   SHMOD = 0 
   RGATEMOD = 0 
   RGEOMOD = 1 
   CGEOMOD = 2 
   CAPMOD = 0 
   LINT = -1e-09 m
   LL =      0 m^(LLN+1)
   LLN =      1 
   DLC =      0 m
   DLBIN =      0 
   LLC =      0 m^(LLN+1)
   EOT =  1e-09 m
   TOXP = 1.35e-09 m
   EOTBOX = 1.4e-07 m
   HFIN = 2.6e-08 m
   FECH =      1 
   DELTAW =      0 m
   FECHCV =      1 
   DELTAWCV =      0 m
   NBODY =  1e+23 m^-3
   NSD =  3e+26 m^-3
   PHIG =  4.589 eV
   EPSROX =    3.9 
   EPSRSUB =   11.9 
   EASUB =   4.05 eV
   NI0SUB = 1.1e+16 m^-3
   BG0SUB =   1.12 eV
   NC0SUB = 2.86e+25 m^-3
   NGATE =      0 m^-3
   CIT = 1.3e-05 F/m^2
   CDSC =  0.021 F/m^2
   CDSCD =  0.007 F/m^2
   CDSCDR =  0.007 
   DVT0 =   0.01 
   DVT1 =   0.69 
   PHIN =   0.05 V
   ETA0 = 0.7358 
   ETA0R = 0.7358 
   DSUB =    0.9 
   K1RSCE =      0 V^1/2
   LPE0 =  5e-09 m
   DVTSHIFT =      0 
   QMFACTOR =      0 
   QMTCENIV =      0 
   QMTCENCV =      0 
   AQMTCEN =      0 
   BQMTCEN = 1.2e-08 
   ETAQM =   0.54 
   QM0 = 0.001143 
   PQM =   0.66 
   QM0ACC =  0.001 
   PQMACC =   0.66 
   VSAT =  9e+04 
   AVSAT =      0 
   BVSAT =  1e-07 
   VSAT1 =  9e+04 
   AVSAT1 =      0 
   BVSAT1 =  1e-07 
   DELTAVSAT =      1 
   KSATIV =    0.8 
   MEXP =      3 
   AMEXP =      0 
   BMEXP =      1 
   PTWG =      0 
   APTWG =      0 
   BPTWG =  1e-07 
   AT = -0.00156 
   TMEXP =      0 
   PTWGT =  0.004 
   U0 = 0.0448 
   ETAMOB =      2 
   UP =      0 
   LPA =      1 
   UA =    0.3 
   AUA =      0 
   BUA =  1e-07 
   EU =    1.8 
   AEU =      0 
   BEU =  1e-07 
   UD =      0 
   AUD =      0 
   BUD =  5e-08 
   UCS =      0 
   UTE =      0 
   UTL = -0.0015 
   UA1 = 0.001032 
   UD1 =      0 
   UCSTE = -0.00478 
   RDSWMIN =      0 
   RDSW =    100 
   ARDSW =      0 
   BRDSW =  1e-07 
   RSWMIN =      0 
   RSW =      0 
   ARSW =      0 
   BRSW =  1e-07 
   RDWMIN =      0 
   RDW =      0 
   ARDW =      0 
   BRDW =  1e-07 
   PRWG =      0 
   WR =      1 
   PRT =  0.001 
   PDIBL1 =    1.3 
   PDIBL2 = 0.0002 
   DROUT =   1.06 
   PVAG =      1 
   PCLM =    0.2 
   APCLM =      0 
   BPCLM =  1e-07 
   PCLMG =      0 
   VASAT =    0.6 
   PCLMCV =  0.013 
   PCLMGCV =      0 
   VASATCV =    0.2 
   RGEXT =      0 ohm
   RGFIN =  0.001 ohm
   RSHS =      0 ohm
   RSHD =      0 ohm
   HEPI = 9.5e-09 m
   TSILI =  9e-09 m
   RHOC = 1.5e-12 ohm/m^2
   RHORSD =      1 ohm/m
   RHOEXT =      1 ohm/m
   CRATIO =    0.5 
   DELTAPRSD =      0 m
   SDTERM = 0 
   LSP =  4e-09 m
   LDG =  3e-09 m
   EPSRSP =    3.9 
   TGATE =  9e-09 m
   TMASK =      0 m
   ASILIEND =      0 m^2
   ARSDEND =      0 m^2
   PRSDEND =      0 m
   NSDE =  3e+25 m^-3
   RGEOA =      1 
   RGEOB =      0 m^-1
   RGEOC =      0 m^-1
   RGEOD =      0 m^-1
   RGEOE =      0 m^-1
   CGEOA =      1 
   CGEOB =      0 m^-1
   CGEOC =      0 m^-1
   CGEOD =      0 m^-1
   CGEOE =      1 
   AIGBINV = 0.0111 (Fs^2/g)^0.5m^-1
   BIGBINV =   0.03 (Fs^2/g)^0.5m^-1
   CIGBINV =  0.006 V^-1
   EIGBINV =    1.1 V
   NIGBINV =    1.2 
   AIGBACC = 0.0149 
   BIGBACC = 0.000949 
   CIGBACC =  0.075 
   NIGBACC =      3 
   AIGC = 0.0136 (Fs^2/g)^0.5m^-1
   BIGC = 0.00171 (Fs^2/g)^0.5m^-1V^-1
   CIGC =  0.075 V^-1
   NIGC =      1 
   DLCIGS =      0 m
   AIGS = 0.0136 (Fs^2/g)^0.5m^-1
   BIGS = 0.00171 (Fs^2/g)^0.5m^-1V^-1
   CIGS =  0.075 V^-1
   DLCIGD =      0 m
   AIGD = 0.0136 (Fs^2/g)^0.5m^-1
   BIGD = 0.00171 (Fs^2/g)^0.5m^-1V^-1
   CIGD =  0.075 V^-1
   POXEDGE =      1 
   AGIDL = 5.729e-12 ohm^-1
   BGIDL =  3e+08 V/m
   EGIDL =    0.1 V
   AGISL = 5.729e-12 ohm^-1
   BGISL =  3e+08 V/m
   EGISL =    0.1 V
   ALPHA0 =      0 mV^-1
   ALPHA1 =      0 V^-1
   BETA0 =     30 V^-1
   ALPHAII =      0 
   BETAII0 =      0 V^-1
   BETAII1 =      0 
   BETAII2 =    0.1 V
   ESATII =  1e+07 V/m
   LII =  5e-10 V/m
   SII0 =    0.5 V^-1
   SII1 =    0.1 
   SII2 =      0 V
   SIID =      0 V
   EOTACC =  1e-09 m
   DELVFBACC =      0 V
   CFS = 2.56e-11 F/m
   CFD = 2.65e-11 F/m
   COVS = 2.5e-11 F/m
   COVD = 2.5e-11 F/m
   CGSO =      0 F/m
   CGDO =      0 F/m
   CGSL =      0 F/m
   CGDL =      0 F/m
   CKAPPAS =    0.6 V
   CKAPPAD =    0.6 V
   CGBO =      0 F/m
   CGBL =      0 F/m
   CKAPPAB =    0.6 V
   CSDESW =      0 F/m
   CJS = 0.0005 F/m^2
   CJD = 0.0005 F/m^2
   CJSWS =  5e-10 F/m
   CJSWD =  5e-10 F/m
   CJSWGS =      0 F/m
   CJSWGD =      0 F/m
   PBS =      1 V
   PBD =      1 V
   PBSWS =      1 V
   PBSWD =      1 V
   PBSWGS =      1 V
   PBSWGD =      1 V
   MJS, =    0.5 
   MJD =    0.5 
   MJSWS =   0.33 
   MJSWD =   0.33 
   MJSWGS =   0.33 
   MJSWGD =   0.33 
   SJS =      0 
   SJD =      0 
   SJSWS =      0 
   SJSWD =      0 
   SJSWGS =      0 
   SJSWGD =      0 
   MJS2 =  0.125 
   MJD2 =  0.125 
   MJSWS2 =   0.33 
   MJSWD2 =   0.33 
   MJSWGS2 =   0.33 
   MJSWGD2 =   0.33 
   JSS = 0.0001 A/m^2
   JSD = 0.0001 A/m^2
   JSWS =      0 A/m
   JSWD =      0 A/m
   JSWGS =      0 A/m
   JSWGD =      0 A/m
   NJS =      1 
   NJD =      1 
   IJTHSFWD =    0.1 A
   IJTHDFWD =    0.1 A
   IJTHSREV =    0.1 A
   IJTHDREV =    0.1 A
   BVS =     10 V
   BVD =     10 V
   XJBVS =      1 
   XJBVD =      1 
   JTSS =      0 A/m^2
   JTSD =      0 A/m^2
   JTSSWS =      0 A/m
   JTSSWD =      0 A/m
   JTSSWGS =      0 A/m
   JTSSWGD =      0 A/m
   JTWEFF =      0 m
   NJTS =     20 
   NJTSD =     20 
   NJTSSW =     20 
   NJTSSWD =     20 
   NJTSSWG =     20 
   NJTSSWGD =     20 
   VTSS =     10 V
   VTSD =     10 V
   VTSSWS =     10 V
   VTSSWD =     10 V
   VTSSWGS =     10 V
   VTSSWGD =     10 V
   LINTIGEN =      0 m
   NTGEN =      1 
   AIGEN =      0 m^-3V^-1
   BIGEN =      0 m^-3V^-3
   XRCRG1 =     12 
   XRCRG2 =      1 
   NSEG = 5 
   EF =      1 
   EM = 4.1e+07 V/m
   NOIA = 6.25e+39 eV^-1s^1-EFm^-3
   NOIB = 3.125e+24 eV^-1s^1-EFm^-1
   NOIC = 8.75e+07 eV^-1s^1-EFm
   NTNOI =      1 
   TNOM =  300.1 K
   TBGASUB = 0.000702 eV/K
   TBGBSUB =   1108 K
   KT1 =      0 V
   KT1L =      0 Vm
   IIT =   -0.5 
   TII =      0 
   TGIDL = -0.0003 K^-1
   IGT =    2.5 
   TCJ =      0 K^-1
   TCJSW =      0 K^-1
   TCJSWG =      0 K^-1
   TPB =      0 K^-1
   TPBSW =      0 K^-1
   TPBSWG =      0 K^-1
   XTIS =      3 
   XTID =      3 
   XTSS =   0.02 
   XTSD =   0.02 
   XTSSWS =   0.02 
   XTSSWD =   0.02 
   XTSSWGS =   0.02 
   XTSSWGD =   0.02 
   TNJTS =      0 
   TNJTSD =      0 
   TNJTSSW =      0 
   TNJTSSWD =      0 
   TNJTSSWG =      0 
   TNJTSSWGD =      0 
   RTH0 =   0.01 ohm
   CTH0 =  1e-05 F
   WTH0 =      0 m
   LNBODY =      0 
   NNBODY =      0 
   PNBODY =      0 
   LPHIG =      0 
   NPHIG =      0 
   PPHIG =      0 
   LNGATE =      0 
   NNGATE =      0 
   PNGATE =      0 
   LCIT =      0 
   NCIT =      0 
   PCIT =      0 
   LCDSC =      0 
   NCDSC =      0 
   PCDSC =      0 
   LCDSCD =      0 
   NCDSCD =      0 
   PCDSCD =      0 
   LCDSCDR =      0 
   NCDSCDR =      0 
   PCDSCDR =      0 
   LDVT0 =      0 
   NDVT0 =      0 
   PDVT0 =      0 
   LDVT1 =      0 
   NDVT1 =      0 
   PDVT1 =      0 
   LPHIN =      0 
   NPHIN =      0 
   PPHIN =      0 
   LETA0 =      0 
   NETA0 =      0 
   PETA0 =      0 
   LETA0R =      0 
   NETA0R =      0 
   PETA0R =      0 
   LDSUB =      0 
   NDSUB =      0 
   PDSUB =      0 
   LK1RSCE =      0 
   NK1RSCE =      0 
   PK1RSCE =      0 
   LLPE0 =      0 
   NLPE0 =      0 
   PLPE0 =      0 
   LQMFACTOR =      0 
   NQMFACTOR =      0 
   PQMFACTOR =      0 
   LQMTCENIV =      0 
   NQMTCENIV =      0 
   PQMTCENIV =      0 
   LQMTCENCV =      0 
   NQMTCENCV =      0 
   PQMTCENCV =      0 
   LVSAT =      0 
   NVSAT =      0 
   PVSAT =      0 
   LKSATIV =      0 
   NKSATIV =      0 
   PKSATIV =      0 
   LMEXP =      0 
   NMEXP =      0 
   PMEXP =      0 
   LPTWG =      0 
   NPTWG =      0 
   PPTWG =      0 
   LTHETASAT =      0 
   NTHETASAT =      0 
   PTHETASAT =      0 
   LU0 =      0 
   NU0 =      0 
   PU0 =      0 
   LUP =      0 
   NUP =      0 
   PUP =      0 
   LUA =      0 
   NUA =      0 
   PUA =      0 
   LEU =      0 
   NEU =      0 
   PEU =      0 
   LUD =      0 
   NUD =      0 
   PUD =      0 
   LUCS =      0 
   NUCS =      0 
   PUCS =      0 
   LPCLM =      0 
   NPCLM =      0 
   PPCLM =      0 
   LPCLMCV =      0 
   NPCLMCV =      0 
   PPCLMCV =      0 
   LRDSW =      0 
   NRDSW =      0 
   PRDSW =      0 
   LRSW =      0 
   NRSW =      0 
   PRSW =      0 
   LRDW =      0 
   NRDW =      0 
   PRDW =      0 
   LPRWG =      0 
   NPRWG =      0 
   PPRWG =      0 
   LWR =      0 
   NWR =      0 
   PWR =      0 
   LPDIBL1 =      0 
   NPDIBL1 =      0 
   PPDIBL1 =      0 
   LPDIBL2 =      0 
   NPDIBL2 =      0 
   PPDIBL2 =      0 
   LDROUT =      0 
   NDROUT =      0 
   PDROUT =      0 
   LPVAG =      0 
   NPVAG =      0 
   PPVAG =      0 
   LAIGBINV =      0 
   NAIGBINV =      0 
   PAIGBINV =      0 
   LBIGBINV =      0 
   NBIGBINV =      0 
   PBIGBINV =      0 
   LCIGBINV =      0 
   NCIGBINV =      0 
   PCIGBINV =      0 
   LEIGBINV =      0 
   NEIGBINV =      0 
   PEIGBINV =      0 
   LNIGBINV =      0 
   NNIGBINV =      0 
   PNIGBINV =      0 
   LAIGC =      0 
   NAIGC =      0 
   PAIGC =      0 
   LBIGC =      0 
   NBIGC =      0 
   PBIGC =      0 
   LCIGC =      0 
   NCIGC =      0 
   PCIGC =      0 
   LNIGC =      0 
   NNIGC =      0 
   PNIGC =      0 
   LAIGS =      0 
   NAIGS =      0 
   PAIGS =      0 
   LBIGS =      0 
   NBIGS =      0 
   PBIGS =      0 
   LCIGS =      0 
   NCIGS =      0 
   PCIGS =      0 
   LAIGD =      0 
   NAIGD =      0 
   PAIGD =      0 
   LBIGD =      0 
   NBIGD =      0 
   PBIGD =      0 
   LCIGD =      0 
   NCIGD =      0 
   PCIGD =      0 
   LPOXEDGE =      0 
   NPOXEDGE =      0 
   PPOXEDGE =      0 
   LAGIDL =      0 
   NAGIDL =      0 
   PAGIDL =      0 
   LBGIDL =      0 
   NBGIDL =      0 
   PBGIDL =      0 
   LEGIDL =      0 
   NEGIDL =      0 
   PEGIDL =      0 
   LAGISL =      0 
   NAGISL =      0 
   PAGISL =      0 
   LBGISL =      0 
   NBGISL =      0 
   PBGISL =      0 
   LEGISL =      0 
   NEGISL =      0 
   PEGISL =      0 
   LALPHA0 =      0 
   NALPHA0 =      0 
   PALPHA0 =      0 
   LALPHA1 =      0 
   NALPHA1 =      0 
   PALPHA1 =      0 
   LBETA0 =      0 
   NBETA0 =      0 
   PBETA0 =      0 
   LALPHAII =      0 
   NALPHAII =      0 
   PALPHAII =      0 
   LBETAII0 =      0 
   NBETAII0 =      0 
   PBETAII0 =      0 
   LBETAII1 =      0 
   NBETAII1 =      0 
   PBETAII1 =      0 
   LBETAII2 =      0 
   NBETAII2 =      0 
   PBETAII2 =      0 
   LESATII =      0 
   NESATII =      0 
   PESATII =      0 
   LLII =      0 
   NLII =      0 
   PLII =      0 
   LSII0 =      0 
   NSII0 =      0 
   PSII0 =      0 
   LSII1 =      0 
   NSII1 =      0 
   PSII1 =      0 
   LSII2 =      0 
   NSII2 =      0 
   PSII2 =      0 
   LSIID =      0 
   NSIID =      0 
   PSIID =      0 
   LCFS =      0 
   NCFS =      0 
   PCFS =      0 
   LCFD =      0 
   NCFD =      0 
   PCFD =      0 
   LCOVS =      0 
   NCOVS =      0 
   PCOVS =      0 
   LCOVD =      0 
   NCOVD =      0 
   PCOVD =      0 
   LCGSL =      0 
   NCGSL =      0 
   PCGSL =      0 
   LCGDL =      0 
   NCGDL =      0 
   PCGDL =      0 
   LCKAPPAS =      0 
   NCKAPPAS =      0 
   PCKAPPAS =      0 
   LCKAPPAD =      0 
   NCKAPPAD =      0 
   PCKAPPAD =      0 
   LCGBL =      0 
   NCGBL =      0 
   PCGBL =      0 
   LCKAPPAB =      0 
   NCKAPPAB =      0 
   PCKAPPAB =      0 
   LNTGEN =      0 
   NNTGEN =      0 
   PNTGEN =      0 
   LAIGEN =      0 
   NAIGEN =      0 
   PAIGEN =      0 
   LBIGEN =      0 
   NBIGEN =      0 
   PBIGEN =      0 
   LXRCRG1 =      0 
   NXRCRG1 =      0 
   PXRCRG1 =      0 
   LXRCRG2 =      0 
   NXRCRG2 =      0 
   PXRCRG2 =      0 
   LINTNOI =      0 
   NINTNOI =      0 
   PINTNOI =      0 
   LUTE =      0 
   NUTE =      0 
   PUTE =      0 
   LUTL =      0 
   NUTL =      0 
   PUTL =      0 
   LUA1 =      0 
   NUA1 =      0 
   PUA1 =      0 
   LUD1 =      0 
   NUD1 =      0 
   PUD1 =      0 
   LUCSTE =      0 
   NUCSTE =      0 
   PUCSTE =      0 
   LPTWGT =      0 
   NPTWGT =      0 
   PPTWGT =      0 
   LAT =      0 
   NAT =      0 
   PAT =      0 
   LSTTHETASAT =      0 
   NSTTHETASAT =      0 
   PSTTHETASAT =      0 
   LPRT =      0 
   NPRT =      0 
   PPRT =      0 
   LIIT =      0 
   NIIT =      0 
   PIIT =      0 
   LTII =      0 
   NTII =      0 
   PTII =      0 
   LTGIDL =      0 
   NTGIDL =      0 
   PTGIDL =      0 
   LIGT =      0 
   NIGT =      0 
   PIGT =      0 
   L =  2e-08 m
   D =  4e-08 m
   TFIN = 1.2e-08 m
   FPITCH = 4.2e-08 m
   NF = 1 
   NFIN = 1 
   NGCON = 1 
   ASEO =      0 m^2
   ADEO =      0 m^2
   PSEO =      0 m
   PDEO =      0 m
   ASEJ =      0 m^2
   ADEJ =      0 m^2
   PSEJ =      0 m
   PDEJ =      0 m
   CGSP =      0 F
   CGDP =      0 F
   CDSP =      0 F
   NRS =      0 
   NRD =      0 
   LRSD =  2e-08 m
   XL =      0 m
   DELVTRAND =      0 
   U0MULT =      1 
   IDS0MULT =      1 
   Lmin =  1e-08 m
   Lmax =  3e-08 m
   NFINmin = 0 
   NFINmax = 1 
   LVSAT1 =      0 
   NVSAT1 =      0 
   PVSAT1 =      0 
   LETAMOB =      0 
   NETAMOB =      0 
   PETAMOB =      0 
   LPCLMG =      0 
   NPCLMG =      0 
   PPCLMG =      0 
   LVASAT =      0 
   NVASAT =      0 
   PVASAT =      0 
   LAIGBACC =      0 
   NAIGBACC =      0 
   PAIGBACC =      0 
   LBIGBACC =      0 
   NBIGBACC =      0 
   PBIGBACC =      0 
   LCIGBACC =      0 
   NCIGBACC =      0 
   PCIGBACC =      0 
   LNIGBACC =      0 
   NNIGBACC =      0 
   PNIGBACC =      0 
  **info** (ptm16lstp.sp:15) DC voltage reset to initial transient source value              in source        0:vin_0               new dc=  0.8500D+00
  
      
 **info** set option symb=1 internally to help for convergence.
 *****************************************************************
 ******  option summary
 ******
 runlvl  = 3         bypass  = 2         
  Opening plot unit= 15
 file=ptm16lstp.pa0                                                            

1****** HSPICE -- F-2011.09-SP2 64-BIT (Feb 27 2012) linux ******               
 ******  
 $ netlist of inverter

  ******  operating point information tnom=  25.000 temp=  25.000 *****
 ***** operating point status is voltage   simulation time is     0.     
     node    =voltage       node    =voltage       node    =voltage

 + 0:inb_0   = 850.0000m  0:inb_1   = 850.0000m  0:outb_00 = 849.9994m
 + 0:outb_10 = 849.9994m  0:outin_00= 575.7482n  0:outin_01= 575.7482n
 + 0:outin_10= 849.9994m  0:outin_11= 849.9994m  0:outin_20= 575.7586n
 + 0:outin_21= 575.7586n  0:vdd     = 850.0000m

 ******  
 $ netlist of inverter

  ******  transient analysis tnom=  25.000 temp=  25.000 *****
 model_uut_peak_power00=  18.5722u    at=  36.1436p
             from=   0.         to=   4.0000n
 model_uut_avg_power00= 105.2932n  from=   0.          to=   4.0000n
 model_uut_peak_power10=  25.2628u    at=  40.1588p
             from=   0.         to=   4.0000n
 model_uut_avg_power10= 111.4116n  from=   0.          to=   4.0000n
 model_uut_peak_power01=  18.5722u    at=  36.1436p
             from=   0.         to=   4.0000n
 model_uut_avg_power01=  51.7729n  from=   0.          to=   4.0000n
 model_uut_peak_power11=  25.2628u    at=  40.1588p
             from=   0.         to=   4.0000n
 model_uut_avg_power11=  57.3449n  from=   0.          to=   4.0000n
 uut_peak_power=  60.8351u    at=  40.1588p
             from=   0.         to=   4.0000n
 uut_avg_power= 325.8226n  from=   0.          to=   4.0000n
 source_peak_power=  62.9678u    at=  40.1588p
             from=   0.         to=   4.0000n
 source_avg_power= 528.1528n  from=   0.          to=   4.0000n
 trf_delay_001=   5.1434p  targ=  38.6192p   trig=  33.4758p
 tfr_delay_001=   5.2448p  targ=   1.0884n   trig=   1.0831n
 trf_delay_002=   5.4924p  targ=   2.0383n   trig=   2.0328n
 tfr_delay_002=   5.1416p  targ=   3.0879n   trig=   3.0827n
 trf_delay_101=   3.7940p  targ=   1.0921n   trig=   1.0884n
 tfr_delay_101=   4.3477p  targ=  42.9669p   trig=  38.6192p
 trf_delay_102=   3.8537p  targ=   3.0917n   trig=   3.0879n
 tfr_delay_102=   3.4691p  targ=   2.0418n   trig=   2.0383n
 trf_delay_011=   5.1434p  targ=  38.6192p   trig=  33.4758p
 tfr_delay_011=   4.9761p  targ=   2.0882n   trig=   2.0833n
 trf_delay_111=   3.8130p  targ=   2.0921n   trig=   2.0882n
 tfr_delay_111=   4.3477p  targ=  42.9669p   trig=  38.6192p
x

        time    voltage      voltage    
                 outin_00     outin_10  
    0.          575.7482n    849.9994m  
   10.00000p     -4.3686m    850.0185m  
   20.00000p     20.1002m    851.0852m  
   30.00000p    263.7726m    844.2688m  
   40.00000p    755.4521m    281.8318m  
   50.00000p    842.8221m      1.1030m  
   60.00000p    850.0025m     -9.7589u  
   70.00000p    849.9989m      4.9517u  
   80.00000p    849.9987m    -13.5984u  
   90.00000p    849.9995m      0.       
  100.00000p    850.0004m     13.3361u  
  110.00000p    850.0002m     12.2486u  
  120.00000p    849.9997m      5.6719u  
  130.00000p    849.9991m   -904.6895n  
  140.00000p    849.9986m     -7.4813u  
  150.00000p    849.9980m    -14.0580u  
  160.00000p    849.9981m    -13.0457u  
  170.00000p    849.9984m     -9.6992u  
  180.00000p    849.9987m     -6.3528u  
  190.00000p    849.9991m     -3.0064u  
  200.00000p    849.9994m      0.       
  210.00000p    849.9997m      3.6865u  
  220.00000p    850.0000m      7.0329u  
  230.00000p    850.0003m     10.3793u  
  240.00000p    850.0006m     13.7258u  
  250.00000p    850.0009m     16.4703u  
  260.00000p    850.0007m     14.4796u  
  270.00000p    850.0005m     12.4888u  
  280.00000p    850.0003m     10.4981u  
  290.00000p    850.0001m      8.5074u  
  300.00000p    849.9999m      6.5167u  
  310.00000p    849.9997m      4.5260u  
  320.00000p    849.9995m      2.5352u  
  330.00000p    849.9993m    544.5269n  
  340.00000p    849.9991m     -1.4462u  
  350.00000p    849.9989m     -3.4369u  
  360.00000p    849.9987m     -5.4276u  
  370.00000p    849.9985m     -7.4183u  
  380.00000p    849.9983m     -9.4091u  
  390.00000p    849.9981m    -11.3998u  
  400.00000p    849.9979m    -13.3905u  
  410.00000p    849.9977m    -15.3812u  
  420.00000p    849.9979m    -13.8746u  
  430.00000p    849.9981m    -12.2739u  
  440.00000p    849.9982m    -10.6732u  
  450.00000p    849.9984m     -9.0724u  
  460.00000p    849.9986m     -7.4717u  
  470.00000p    849.9987m     -5.8710u  
  480.00000p    849.9989m     -4.2702u  
  490.00000p    849.9990m     -2.6695u  
  500.00000p    849.9992m     -1.0688u  
  510.00000p    849.9994m    531.9766n  
  520.00000p    849.9995m      2.1327u  
  530.00000p    849.9997m      3.7334u  
  540.00000p    849.9999m      5.3342u  
  550.00000p    850.0000m      6.9349u  
  560.00000p    850.0002m      8.5356u  
  570.00000p    850.0003m     10.1364u  
  580.00000p    850.0005m     11.7371u  
  590.00000p    850.0007m     13.3378u  
  600.00000p    850.0008m     14.9386u  
  610.00000p    850.0010m     16.5393u  
  620.00000p    850.0008m     15.0273u  
  630.00000p    850.0007m     13.4316u  
  640.00000p    850.0005m     11.8358u  
  650.00000p    850.0003m     10.2401u  
  660.00000p    850.0002m      8.6444u  
  670.00000p    850.0000m      7.0486u  
  680.00000p    849.9998m      5.4529u  
  690.00000p    849.9997m      3.8571u  
  700.00000p    849.9995m      2.2614u  
  710.00000p    849.9993m    665.6272n  
  720.00000p    849.9992m   -930.1176n  
  730.00000p    849.9990m     -2.5259u  
  740.00000p    849.9988m     -4.1216u  
  750.00000p    849.9987m     -5.7174u  
  760.00000p    849.9985m     -7.3131u  
  770.00000p    849.9983m     -8.9088u  
  780.00000p    849.9982m    -10.5046u  
  790.00000p    849.9980m    -12.1003u  
  800.00000p    849.9978m    -13.6961u  
  810.00000p    849.9977m    -15.2918u  
  820.00000p    849.9978m    -13.7845u  
  830.00000p    849.9980m    -12.1937u  
  840.00000p    849.9982m    -10.6029u  
  850.00000p    849.9983m     -9.0120u  
  860.00000p    849.9985m     -7.4212u  
  870.00000p    849.9987m     -5.8304u  
  880.00000p    849.9989m     -4.2396u  
  890.00000p    849.9990m     -2.6487u  
  900.00000p    849.9992m     -1.0579u  
  910.00000p    849.9994m    532.9231n  
  920.00000p    849.9995m      2.1237u  
  930.00000p    849.9997m      3.7146u  
  940.00000p    849.9999m      5.3054u  
  950.00000p    850.0000m      6.8962u  
  960.00000p    850.0002m      8.4871u  
  970.00000p    850.0004m     10.0779u  
  980.00000p    850.0006m     11.6687u  
  990.00000p    850.0007m     13.2595u  
    1.00000n    850.0009m     14.8504u  
    1.01000n    850.0011m     16.4412u  
    1.02000n    850.0002m      8.7561u  
    1.03000n    849.9993m    821.3168n  
    1.04000n    849.9984m     -7.1134u  
    1.05000n    849.9975m    -15.0482u  
    1.06000n    855.8912m     36.0485u  
    1.07000n    836.5064m   -782.2219u  
    1.08000n    576.3716m     -1.7241m  
    1.09000n     58.4556m    629.3389m  
    1.10000n      5.0780m    849.1910m  
    1.11000n      6.3212u    850.0070m  
    1.12000n     -2.7769u    849.9948m  
    1.13000n      9.5407u    850.0110m  
    1.14000n      5.1080u    850.0049m  
    1.15000n    675.4208n    849.9989m  
    1.16000n     -3.7572u    849.9929m  
    1.17000n     -7.9564u    849.9871m  
    1.18000n     -6.1256u    849.9897m  
    1.19000n     -4.2949u    849.9922m  
    1.20000n     -2.4641u    849.9947m  
    1.21000n   -633.3452n    849.9973m  
    1.22000n      1.1974u    849.9998m  
    1.23000n      3.0282u    850.0023m  
    1.24000n      4.8590u    850.0049m  
    1.25000n      6.6897u    850.0074m  
    1.26000n      8.5205u    850.0099m  
    1.27000n      8.3432u    850.0097m  
    1.28000n      7.4943u    850.0085m  
    1.29000n      6.6455u    850.0073m  
    1.30000n      5.7967u    850.0061m  
    1.31000n      4.9479u    850.0050m  
    1.32000n      4.0991u    850.0038m  
    1.33000n      3.2503u    850.0026m  
    1.34000n      2.4015u    850.0014m  
    1.35000n      1.5526u    850.0002m  
    1.36000n    703.8231n    849.9990m  
    1.37000n      0.         849.9979m  
    1.38000n   -993.8069n    849.9967m  
    1.39000n     -1.8426u    849.9955m  
    1.40000n     -2.6914u    849.9943m  
    1.41000n     -3.5403u    849.9931m  
    1.42000n     -4.3891u    849.9919m  
    1.43000n     -5.2379u    849.9908m  
    1.44000n     -6.0867u    849.9896m  
    1.45000n     -6.9355u    849.9884m  
    1.46000n     -7.6898u    849.9873m  
    1.47000n     -6.8628u    849.9885m  
    1.48000n     -6.0358u    849.9897m  
    1.49000n     -5.2088u    849.9908m  
    1.50000n     -4.3818u    849.9920m  
    1.51000n     -3.5548u    849.9931m  
    1.52000n     -2.7278u    849.9943m  
    1.53000n     -1.9008u    849.9954m  
    1.54000n     -1.0738u    849.9966m  
    1.55000n      0.         849.9978m  
    1.56000n    580.1718n    849.9989m  
    1.57000n      1.4072u    850.0001m  
    1.58000n      2.2342u    850.0012m  
    1.59000n      3.0612u    850.0024m  
    1.60000n      3.8882u    850.0035m  
    1.61000n      4.7152u    850.0047m  
    1.62000n      5.5422u    850.0059m  
    1.63000n      6.3692u    850.0070m  
    1.64000n      7.1962u    850.0082m  
    1.65000n      8.0232u    850.0093m  
    1.66000n      8.7574u    850.0104m  
    1.67000n      7.9393u    850.0092m  
    1.68000n      7.1211u    850.0081m  
    1.69000n      6.3029u    850.0069m  
    1.70000n      5.4847u    850.0058m  
    1.71000n      4.6666u    850.0046m  
    1.72000n      3.8484u    850.0035m  
    1.73000n      3.0302u    850.0023m  
    1.74000n      2.2121u    850.0012m  
    1.75000n      1.3939u    850.0000m  
    1.76000n    575.7171n    849.9989m  
    1.77000n      0.         849.9977m  
    1.78000n     -1.0606u    849.9966m  
    1.79000n     -1.8788u    849.9954m  
    1.80000n     -2.6970u    849.9943m  
    1.81000n     -3.5151u    849.9931m  
    1.82000n     -4.3333u    849.9920m  
    1.83000n     -5.1515u    849.9908m  
    1.84000n     -5.9697u    849.9897m  
    1.85000n     -6.7878u    849.9885m  
    1.86000n     -7.4951u    849.9875m  
    1.87000n     -6.3462u    849.9891m  
    1.88000n     -5.1973u    849.9908m  
    1.89000n     -4.0483u    849.9924m  
    1.90000n     -2.8994u    849.9940m  
    1.91000n     -1.7505u    849.9956m  
    1.92000n   -601.5584n    849.9973m  
    1.93000n    547.3646n    849.9989m  
    1.94000n      1.6963u    850.0005m  
    1.95000n      2.8452u    850.0021m  
    1.96000n      3.9941u    850.0038m  
    1.97000n      5.1431u    850.0054m  
    1.98000n      6.2920u    850.0070m  
    1.99000n      7.4409u    850.0086m  
    2.00000n      8.5898u    850.0103m  
    2.01000n     -4.6385m    849.9521m  
    2.02000n     99.7590m    854.3847m  
    2.03000n    301.0520m    783.5048m  
    2.04000n    719.5544m    286.7303m  
    2.05000n    843.1579m    874.5194u  
    2.06000n    849.9921m      5.4130u  
    2.07000n    850.0017m      0.       
    2.08000n    849.9992m    889.9148n  
    2.09000n    849.9993m    612.0161n  
    2.10000n    849.9994m    577.8168n  
    2.11000n    849.9994m    575.7163n  
    2.12000n    849.9994m    575.7450n  
    2.13000n    849.9994m    575.7319n  
    2.14000n    849.9994m    575.7175n  
    2.15000n    849.9994m    575.7171n  
    2.16000n    849.9994m    575.7215n  
    2.17000n    849.9994m    575.7259n  
    2.18000n    849.9994m    575.7304n  
    2.19000n    849.9994m    575.7348n  
    2.20000n    849.9994m    575.7392n  
    2.21000n    849.9994m    575.7436n  
    2.22000n    849.9994m    575.7441n  
    2.23000n    849.9994m    575.7423n  
    2.24000n    849.9994m    575.7405n  
    2.25000n    849.9994m    575.7388n  
    2.26000n    849.9994m    575.7370n  
    2.27000n    849.9994m    575.7352n  
    2.28000n    849.9994m    575.7335n  
    2.29000n    849.9994m    575.7317n  
    2.30000n    849.9994m    575.7299n  
    2.31000n    849.9994m    575.7282n  
    2.32000n    849.9994m    575.7264n  
    2.33000n    849.9994m    575.7246n  
    2.34000n    849.9994m    575.7228n  
    2.35000n    849.9994m    575.7211n  
    2.36000n    849.9994m    575.7193n  
    2.37000n    849.9994m    575.7175n  
    2.38000n    849.9994m    575.7158n  
    2.39000n    849.9994m    575.7142n  
    2.40000n    849.9994m    575.7157n  
    2.41000n    849.9994m    575.7173n  
    2.42000n    849.9994m    575.7188n  
    2.43000n    849.9994m    575.7204n  
    2.44000n    849.9994m    575.7219n  
    2.45000n    849.9994m    575.7235n  
    2.46000n    849.9994m    575.7250n  
    2.47000n    849.9994m    575.7266n  
    2.48000n    849.9994m    575.7281n  
    2.49000n    849.9994m    575.7297n  
    2.50000n    849.9994m    575.7312n  
    2.51000n    849.9994m    575.7328n  
    2.52000n    849.9994m    575.7343n  
    2.53000n    849.9994m    575.7359n  
    2.54000n    849.9994m    575.7374n  
    2.55000n    849.9994m    575.7390n  
    2.56000n    849.9994m    575.7405n  
    2.57000n    849.9994m    575.7420n  
    2.58000n    849.9994m    575.7436n  
    2.59000n    849.9994m    575.7450n  
    2.60000n    849.9994m    575.7434n  
    2.61000n    849.9994m    575.7419n  
    2.62000n    849.9994m    575.7404n  
    2.63000n    849.9994m    575.7388n  
    2.64000n    849.9994m    575.7373n  
    2.65000n    849.9994m    575.7357n  
    2.66000n    849.9994m    575.7342n  
    2.67000n    849.9994m    575.7326n  
    2.68000n    849.9994m    575.7311n  
    2.69000n    849.9994m    575.7296n  
    2.70000n    849.9994m    575.7280n  
    2.71000n    849.9994m    575.7265n  
    2.72000n    849.9994m    575.7249n  
    2.73000n    849.9994m    575.7234n  
    2.74000n    849.9994m    575.7218n  
    2.75000n    849.9994m    575.7203n  
    2.76000n    849.9994m    575.7188n  
    2.77000n    849.9994m    575.7172n  
    2.78000n    849.9994m    575.7157n  
    2.79000n    849.9994m    575.7143n  
    2.80000n    849.9994m    575.7158n  
    2.81000n    849.9994m    575.7174n  
    2.82000n    849.9994m    575.7189n  
    2.83000n    849.9994m    575.7204n  
    2.84000n    849.9994m    575.7220n  
    2.85000n    849.9994m    575.7235n  
    2.86000n    849.9994m    575.7250n  
    2.87000n    849.9994m    575.7266n  
    2.88000n    849.9994m    575.7281n  
    2.89000n    849.9994m    575.7297n  
    2.90000n    849.9994m    575.7312n  
    2.91000n    849.9994m    575.7327n  
    2.92000n    849.9994m    575.7343n  
    2.93000n    849.9994m    575.7358n  
    2.94000n    849.9994m    575.7373n  
    2.95000n    849.9994m    575.7389n  
    2.96000n    849.9994m    575.7404n  
    2.97000n    849.9994m    575.7419n  
    2.98000n    849.9994m    575.7435n  
    2.99000n    849.9994m    575.7447n  
    3.00000n    849.9994m    575.7396n  
    3.01000n    849.9994m    575.7346n  
    3.02000n    849.9994m    575.7296n  
    3.03000n    849.9994m    575.7245n  
    3.04000n    849.9994m    575.7195n  
    3.05000n    849.9994m    575.7145n  
    3.06000n    855.8770m     22.8313u  
    3.07000n    847.8082m   -395.6316u  
    3.08000n    564.1174m     -7.7363m  
    3.09000n     45.3246m    657.1541m  
    3.10000n      4.8312m    848.9231m  
    3.11000n     -5.2749u    850.0222m  
    3.12000n      3.9177u    850.0039m  
    3.13000n      5.9310u    850.0139m  
    3.14000n     -1.3388u    849.9963m  
    3.15000n     -8.6087u    849.9787m  
    3.16000n     -6.5400u    849.9831m  
    3.17000n     -3.6199u    849.9896m  
    3.18000n   -699.8339n    849.9960m  
    3.19000n      2.2202u    850.0024m  
    3.20000n      5.1403u    850.0089m  
    3.21000n      8.0604u    850.0153m  
    3.22000n     10.0595u    850.0197m  
    3.23000n      8.9167u    850.0173m  
    3.24000n      7.7739u    850.0149m  
    3.25000n      6.6311u    850.0124m  
    3.26000n      5.4883u    850.0100m  
    3.27000n      4.3455u    850.0076m  
    3.28000n      3.2027u    850.0051m  
    3.29000n      2.0599u    850.0027m  
    3.30000n    917.0695n    850.0003m  
    3.31000n      0.         849.9978m  
    3.32000n     -1.3685u    849.9954m  
    3.33000n     -2.5113u    849.9930m  
    3.34000n     -3.6541u    849.9906m  
    3.35000n     -4.7969u    849.9881m  
    3.36000n     -5.9398u    849.9857m  
    3.37000n     -7.0826u    849.9833m  
    3.38000n     -8.2254u    849.9808m  
    3.39000n     -8.9526u    849.9793m  
    3.40000n     -7.9821u    849.9813m  
    3.41000n     -7.0116u    849.9833m  
    3.42000n     -6.0410u    849.9854m  
    3.43000n     -5.0705u    849.9874m  
    3.44000n     -4.1000u    849.9894m  
    3.45000n     -3.1295u    849.9914m  
    3.46000n     -2.1589u    849.9935m  
    3.47000n     -1.1884u    849.9955m  
    3.48000n      0.         849.9975m  
    3.49000n    752.6673n    849.9996m  
    3.50000n      1.7232u    850.0016m  
    3.51000n      2.6937u    850.0036m  
    3.52000n      3.6643u    850.0057m  
    3.53000n      4.6348u    850.0077m  
    3.54000n      5.6053u    850.0097m  
    3.55000n      6.5759u    850.0117m  
    3.56000n      7.5464u    850.0138m  
    3.57000n      8.5169u    850.0158m  
    3.58000n      9.4874u    850.0178m  
    3.59000n     10.0768u    850.0191m  
    3.60000n      9.1085u    850.0171m  
    3.61000n      8.1402u    850.0151m  
    3.62000n      7.1720u    850.0131m  
    3.63000n      6.2037u    850.0111m  
    3.64000n      5.2354u    850.0091m  
    3.65000n      4.2672u    850.0071m  
    3.66000n      3.2989u    850.0051m  
    3.67000n      2.3306u    850.0031m  
    3.68000n      1.3624u    850.0011m  
    3.69000n      0.         849.9991m  
    3.70000n   -574.1552n    849.9971m  
    3.71000n     -1.5424u    849.9952m  
    3.72000n     -2.5107u    849.9932m  
    3.73000n     -3.4790u    849.9912m  
    3.74000n     -4.4472u    849.9892m  
    3.75000n     -5.4155u    849.9872m  
    3.76000n     -6.3837u    849.9852m  
    3.77000n     -7.3520u    849.9832m  
    3.78000n     -8.3203u    849.9812m  
    3.79000n     -8.9189u    849.9800m  
    3.80000n     -8.0073u    849.9818m  
    3.81000n     -7.0958u    849.9837m  
    3.82000n     -6.1842u    849.9855m  
    3.83000n     -5.2726u    849.9874m  
    3.84000n     -4.3610u    849.9892m  
    3.85000n     -3.4494u    849.9911m  
    3.86000n     -2.5378u    849.9929m  
    3.87000n     -1.6262u    849.9947m  
    3.88000n   -714.6395n    849.9966m  
    3.89000n      0.         849.9984m  
    3.90000n      1.1085u    850.0003m  
    3.91000n      2.0201u    850.0021m  
    3.92000n      2.9317u    850.0040m  
    3.93000n      3.8433u    850.0058m  
    3.94000n      4.7549u    850.0077m  
    3.95000n      5.6665u    850.0095m  
    3.96000n      6.5781u    850.0114m  
    3.97000n      7.4896u    850.0132m  
    3.98000n      8.4012u    850.0151m  
    3.99000n      9.3128u    850.0169m  
    4.00000n     10.2244u    850.0188m  
y
x

        time    voltage      voltage    
                 outin_10     outin_20  
    0.          849.9994m    575.7586n  
   10.00000p    850.0185m     11.8743u  
   20.00000p    851.0852m     31.2110u  
   30.00000p    844.2688m   -634.0679u  
   40.00000p    281.8318m     74.2220m  
   50.00000p      1.1030m    844.9235m  
   60.00000p     -9.7589u    849.9739m  
   70.00000p      4.9517u    850.0136m  
   80.00000p    -13.5984u    849.9457m  
   90.00000p      0.         849.9972m  
  100.00000p     13.3361u    850.0487m  
  110.00000p     12.2486u    850.0443m  
  120.00000p      5.6719u    850.0188m  
  130.00000p   -904.6895n    849.9932m  
  140.00000p     -7.4813u    849.9677m  
  150.00000p    -14.0580u    849.9422m  
  160.00000p    -13.0457u    849.9462m  
  170.00000p     -9.6992u    849.9592m  
  180.00000p     -6.3528u    849.9723m  
  190.00000p     -3.0064u    849.9854m  
  200.00000p      0.         849.9985m  
  210.00000p      3.6865u    850.0115m  
  220.00000p      7.0329u    850.0246m  
[...]
    3.64000n    575.7483n    849.9994m  
    3.65000n    575.7483n    849.9994m  
    3.66000n    575.7483n    849.9994m  
    3.67000n    575.7482n    849.9994m  
    3.68000n    575.7482n    849.9994m  
    3.69000n    575.7481n    849.9994m  
    3.70000n    575.7481n    849.9994m  
    3.71000n    575.7481n    849.9994m  
    3.72000n    575.7480n    849.9994m  
    3.73000n    575.7480n    849.9994m  
    3.74000n    575.7479n    849.9994m  
    3.75000n    575.7479n    849.9994m  
    3.76000n    575.7479n    849.9994m  
    3.77000n    575.7478n    849.9994m  
    3.78000n    575.7478n    849.9994m  
    3.79000n    575.7478n    849.9994m  
    3.80000n    575.7478n    849.9994m  
    3.81000n    575.7478n    849.9994m  
    3.82000n    575.7479n    849.9994m  
    3.83000n    575.7479n    849.9994m  
    3.84000n    575.7479n    849.9994m  
    3.85000n    575.7480n    849.9994m  
    3.86000n    575.7480n    849.9994m  
    3.87000n    575.7481n    849.9994m  
    3.88000n    575.7481n    849.9994m  
    3.89000n    575.7481n    849.9994m  
    3.90000n    575.7482n    849.9994m  
    3.91000n    575.7482n    849.9994m  
    3.92000n    575.7482n    849.9994m  
    3.93000n    575.7483n    849.9994m  
    3.94000n    575.7483n    849.9994m  
    3.95000n    575.7484n    849.9994m  
    3.96000n    575.7484n    849.9994m  
    3.97000n    575.7484n    849.9994m  
    3.98000n    575.7485n    849.9994m  
    3.99000n    575.7485n    849.9994m  
    4.00000n    575.7485n    849.9994m  
y
x

        time    voltage      voltage    
                 outin_11     outin_21  
    0.          849.9994m    575.7586n  
   10.00000p    850.0185m     11.8743u  
   20.00000p    851.0852m     31.2110u  
   30.00000p    844.2688m   -634.0679u  
   40.00000p    281.8318m     74.2220m  
   50.00000p      1.1030m    844.9235m  
   60.00000p     -9.7589u    849.9739m  
   70.00000p      4.9517u    850.0136m  
   80.00000p    -13.5984u    849.9457m  
   90.00000p      0.         849.9972m  
  100.00000p     13.3361u    850.0487m  
  110.00000p     12.2486u    850.0443m  
  120.00000p      5.6719u    850.0188m  
  130.00000p   -904.6895n    849.9932m  
  140.00000p     -7.4813u    849.9677m  
  150.00000p    -14.0580u    849.9422m  
  160.00000p    -13.0457u    849.9462m  
  170.00000p     -9.6992u    849.9592m  
  180.00000p     -6.3528u    849.9723m  
  190.00000p     -3.0064u    849.9854m  
  200.00000p      0.         849.9985m  
  210.00000p      3.6865u    850.0115m  
  220.00000p      7.0329u    850.0246m  
  230.00000p     10.3793u    850.0377m  
  240.00000p     13.7258u    850.0508m  
  250.00000p     16.4703u    850.0615m  
  260.00000p     14.4796u    850.0537m  
  270.00000p     12.4888u    850.0459m  
  280.00000p     10.4981u    850.0381m  
  290.00000p      8.5074u    850.0303m  
  300.00000p      6.5167u    850.0225m  
  310.00000p      4.5260u    850.0147m  
  320.00000p      2.5352u    850.0069m  
  330.00000p    544.5269n    849.9991m  
  340.00000p     -1.4462u    849.9913m  
  350.00000p     -3.4369u    849.9835m  
  360.00000p     -5.4276u    849.9757m  
  370.00000p     -7.4183u    849.9679m  
  380.00000p     -9.4091u    849.9600m  
  390.00000p    -11.3998u    849.9522m  
  400.00000p    -13.3905u    849.9444m  
  410.00000p    -15.3812u    849.9366m  
  420.00000p    -13.8746u    849.9426m  
  430.00000p    -12.2739u    849.9488m  
  440.00000p    -10.6732u    849.9551m  
  450.00000p     -9.0724u    849.9614m  
  460.00000p     -7.4717u    849.9677m  
  470.00000p     -5.8710u    849.9740m  
  480.00000p     -4.2702u    849.9803m  
  490.00000p     -2.6695u    849.9866m  
  500.00000p     -1.0688u    849.9929m  
  510.00000p    531.9766n    849.9991m  
  520.00000p      2.1327u    850.0054m  
  530.00000p      3.7334u    850.0117m  
  540.00000p      5.3342u    850.0180m  
  550.00000p      6.9349u    850.0243m  
  560.00000p      8.5356u    850.0306m  
  570.00000p     10.1364u    850.0369m  
  580.00000p     11.7371u    850.0432m  
  590.00000p     13.3378u    850.0494m  
  600.00000p     14.9386u    850.0557m  
  610.00000p     16.5393u    850.0620m  
  620.00000p     15.0273u    850.0561m  
  630.00000p     13.4316u    850.0498m  
  640.00000p     11.8358u    850.0435m  
  650.00000p     10.2401u    850.0372m  
  660.00000p      8.6444u    850.0310m  
  670.00000p      7.0486u    850.0247m  
  680.00000p      5.4529u    850.0184m  
  690.00000p      3.8571u    850.0121m  
  700.00000p      2.2614u    850.0058m  
  710.00000p    665.6272n    849.9996m  
  720.00000p   -930.1176n    849.9933m  
  730.00000p     -2.5259u    849.9870m  
  740.00000p     -4.1216u    849.9807m  
  750.00000p     -5.7174u    849.9744m  
  760.00000p     -7.3131u    849.9682m  
  770.00000p     -8.9088u    849.9619m  
  780.00000p    -10.5046u    849.9556m  
  790.00000p    -12.1003u    849.9493m  
  800.00000p    -13.6961u    849.9430m  
  810.00000p    -15.2918u    849.9368m  
  820.00000p    -13.7845u    849.9427m  
  830.00000p    -12.1937u    849.9490m  
  840.00000p    -10.6029u    849.9552m  
  850.00000p     -9.0120u    849.9615m  
  860.00000p     -7.4212u    849.9678m  
  870.00000p     -5.8304u    849.9741m  
  880.00000p     -4.2396u    849.9803m  
  890.00000p     -2.6487u    849.9866m  
  900.00000p     -1.0579u    849.9929m  
  910.00000p    532.9231n    849.9991m  
  920.00000p      2.1237u    850.0054m  
  930.00000p      3.7146u    850.0117m  
  940.00000p      5.3054u    850.0180m  
  950.00000p      6.8962u    850.0242m  
  960.00000p      8.4871u    850.0305m  
  970.00000p     10.0779u    850.0368m  
  980.00000p     11.6687u    850.0430m  
  990.00000p     13.2595u    850.0493m  
    1.00000n     14.8504u    850.0556m  
    1.01000n     16.4412u    850.0619m  
    1.02000n      8.7561u    850.0314m  
    1.03000n    821.3168n    850.0000m  
    1.04000n     -7.1134u    849.9685m  
    1.05000n    -15.0482u    849.9371m  
    1.06000n    738.2056n    850.0000m  
    1.07000n      0.         849.9988m  
    1.08000n    575.1567n    849.9993m  
    1.09000n    574.1218n    849.9993m  
    1.10000n    575.8018n    849.9994m  
    1.11000n    575.7581n    849.9994m  
    1.12000n    575.7589n    849.9994m  
    1.13000n    575.7571n    849.9994m  
    1.14000n    575.7578n    849.9994m  
    1.15000n    575.7586n    849.9994m  
    1.16000n    575.7593n    849.9994m  
    1.17000n    575.7600n    849.9994m  
    1.18000n    575.7597n    849.9994m  
    1.19000n    575.7593n    849.9994m  
    1.20000n    575.7590n    849.9994m  
    1.21000n    575.7587n    849.9994m  
    1.22000n    575.7584n    849.9994m  
    1.23000n    575.7581n    849.9994m  
    1.24000n    575.7578n    849.9994m  
    1.25000n    575.7575n    849.9994m  
    1.26000n    575.7572n    849.9994m  
    1.27000n    575.7572n    849.9994m  
    1.28000n    575.7573n    849.9994m  
    1.29000n    575.7575n    849.9994m  
    1.30000n    575.7576n    849.9994m  
    1.31000n    575.7578n    849.9994m  
    1.32000n    575.7579n    849.9994m  
    1.33000n    575.7581n    849.9994m  
    1.34000n    575.7582n    849.9994m  
    1.35000n    575.7584n    849.9994m  
    1.36000n    575.7585n    849.9994m  
    1.37000n    575.7587n    849.9994m  
    1.38000n    575.7588n    849.9994m  
    1.39000n    575.7590n    849.9994m  
    1.40000n    575.7591n    849.9994m  
    1.41000n    575.7593n    849.9994m  
    1.42000n    575.7594n    849.9994m  
    1.43000n    575.7595n    849.9994m  
    1.44000n    575.7597n    849.9994m  
    1.45000n    575.7598n    849.9994m  
    1.46000n    575.7600n    849.9994m  
    1.47000n    575.7598n    849.9994m  
    1.48000n    575.7597n    849.9994m  
    1.49000n    575.7595n    849.9994m  
    1.50000n    575.7594n    849.9994m  
    1.51000n    575.7592n    849.9994m  
    1.52000n    575.7591n    849.9994m  
    1.53000n    575.7590n    849.9994m  
    1.54000n    575.7588n    849.9994m  
    1.55000n    575.7587n    849.9994m  
    1.56000n    575.7585n    849.9994m  
    1.57000n    575.7584n    849.9994m  
    1.58000n    575.7582n    849.9994m  
    1.59000n    575.7581n    849.9994m  
    1.60000n    575.7579n    849.9994m  
    1.61000n    575.7578n    849.9994m  
    1.62000n    575.7577n    849.9994m  
    1.63000n    575.7575n    849.9994m  
    1.64000n    575.7574n    849.9994m  
    1.65000n    575.7572n    849.9994m  
    1.66000n    575.7571n    849.9994m  
    1.67000n    575.7572n    849.9994m  
    1.68000n    575.7574n    849.9994m  
    1.69000n    575.7575n    849.9994m  
    1.70000n    575.7577n    849.9994m  
    1.71000n    575.7578n    849.9994m  
    1.72000n    575.7580n    849.9994m  
    1.73000n    575.7581n    849.9994m  
    1.74000n    575.7582n    849.9994m  
    1.75000n    575.7584n    849.9994m  
    1.76000n    575.7585n    849.9994m  
    1.77000n    575.7587n    849.9994m  
    1.78000n    575.7588n    849.9994m  
    1.79000n    575.7590n    849.9994m  
    1.80000n    575.7591n    849.9994m  
    1.81000n    575.7593n    849.9994m  
    1.82000n    575.7594n    849.9994m  
    1.83000n    575.7596n    849.9994m  
    1.84000n    575.7597n    849.9994m  
    1.85000n    575.7598n    849.9994m  
    1.86000n    575.7600n    849.9994m  
    1.87000n    575.7598n    849.9994m  
    1.88000n    575.7596n    849.9994m  
    1.89000n    575.7594n    849.9994m  
    1.90000n    575.7591n    849.9994m  
    1.91000n    575.7589n    849.9994m  
    1.92000n    575.7587n    849.9994m  
    1.93000n    575.7585n    849.9994m  
    1.94000n    575.7583n    849.9994m  
    1.95000n    575.7581n    849.9994m  
    1.96000n    575.7579n    849.9994m  
    1.97000n    575.7577n    849.9994m  
    1.98000n    575.7575n    849.9994m  
    1.99000n    575.7573n    849.9994m  
    2.00000n    575.7571n    849.9994m  
    2.01000n    575.7586n    849.9994m  
    2.02000n    575.7586n    849.9994m  
    2.03000n    575.7586n    849.9994m  
    2.04000n    575.7586n    849.9994m  
    2.05000n    575.7586n    849.9994m  
    2.06000n     24.9451u    850.0089m  
    2.07000n   -578.9023u    849.9635m  
    2.08000n    -11.5832m    849.3698m  
    2.09000n    632.6897m    716.4747m  
    2.10000n    848.6727m      1.0721m  
    2.11000n    849.9859m     -8.7989u  
    2.12000n    850.0141m     11.2374u  
    2.13000n    850.0018m      2.1313u  
    2.14000n    849.9881m     -7.9240u  
    2.15000n    849.9876m     -8.1504u  
    2.16000n    849.9916m     -5.0660u  
    2.17000n    849.9956m     -1.9815u  
    2.18000n    849.9997m      1.1029u  
    2.19000n    850.0037m      4.1873u  
    2.20000n    850.0077m      7.2718u  
    2.21000n    850.0117m     10.3562u  
    2.22000n    850.0122m     10.7121u  
    2.23000n    850.0106m      9.4708u  
    2.24000n    850.0090m      8.2294u  
    2.25000n    850.0074m      6.9881u  
    2.26000n    850.0058m      5.7467u  
    2.27000n    850.0042m      4.5054u  
    2.28000n    850.0026m      3.2640u  
    2.29000n    850.0010m      2.0227u  
    2.30000n    849.9994m    781.3276n  
    2.31000n    849.9979m      0.       
    2.32000n    849.9963m     -1.7014u  
    2.33000n    849.9947m     -2.9427u  
    2.34000n    849.9931m     -4.1841u  
    2.35000n    849.9915m     -5.4254u  
    2.36000n    849.9899m     -6.6668u  
    2.37000n    849.9883m     -7.9081u  
    2.38000n    849.9867m     -9.1495u  
    2.39000n    849.9853m    -10.2668u  
    2.40000n    849.9867m     -9.1794u  
    2.41000n    849.9880m     -8.0920u  
    2.42000n    849.9894m     -7.0046u  
    2.43000n    849.9908m     -5.9172u  
    2.44000n    849.9922m     -4.8299u  
    2.45000n    849.9936m     -3.7425u  
    2.46000n    849.9950m     -2.6551u  
    2.47000n    849.9963m     -1.5677u  
    2.48000n    849.9977m      0.       
    2.49000n    849.9991m    607.0515n  
    2.50000n    850.0005m      1.6944u  
    2.51000n    850.0019m      2.7818u  
    2.52000n    850.0033m      3.8692u  
    2.53000n    850.0047m      4.9566u  
    2.54000n    850.0060m      6.0440u  
    2.55000n    850.0074m      7.1313u  
    2.56000n    850.0088m      8.2187u  
    2.57000n    850.0102m      9.3061u  
    2.58000n    850.0116m     10.3935u  
    2.59000n    850.0128m     11.3652u  
    2.60000n    850.0114m     10.2812u  
    2.61000n    850.0101m      9.1972u  
    2.62000n    850.0087m      8.1131u  
    2.63000n    850.0073m      7.0291u  
    2.64000n    850.0060m      5.9451u  
    2.65000n    850.0046m      4.8610u  
    2.66000n    850.0032m      3.7770u  
    2.67000n    850.0018m      2.6930u  
    2.68000n    850.0005m      1.6089u  
    2.69000n    849.9991m    524.8977n  
    2.70000n    849.9977m   -559.1357n  
    2.71000n    849.9964m     -1.6432u  
    2.72000n    849.9950m     -2.7272u  
    2.73000n    849.9936m     -3.8112u  
    2.74000n    849.9923m     -4.8953u  
    2.75000n    849.9909m     -5.9793u  
    2.76000n    849.9895m     -7.0633u  
    2.77000n    849.9881m     -8.1474u  
    2.78000n    849.9868m     -9.2314u  
    2.79000n    849.9856m    -10.2001u  
    2.80000n    849.9869m     -9.1195u  
    2.81000n    849.9883m     -8.0388u  
    2.82000n    849.9896m     -6.9581u  
    2.83000n    849.9910m     -5.8774u  
    2.84000n    849.9923m     -4.7967u  
    2.85000n    849.9937m     -3.7160u  
    2.86000n    849.9950m     -2.6353u  
    2.87000n    849.9964m     -1.5547u  
    2.88000n    849.9978m      0.       
    2.89000n    849.9991m    606.7113n  
    2.90000n    850.0005m      1.6874u  
    2.91000n    850.0018m      2.7681u  
    2.92000n    850.0032m      3.8488u  
    2.93000n    850.0045m      4.9295u  
    2.94000n    850.0059m      6.0101u  
    2.95000n    850.0073m      7.0908u  
    2.96000n    850.0086m      8.1715u  
    2.97000n    850.0100m      9.2522u  
    2.98000n    850.0113m     10.3329u  
    2.99000n    850.0124m     11.1671u  
    3.00000n    850.0080m      7.6202u  
    3.01000n    850.0036m      4.0732u  
    3.02000n    849.9992m    526.2593n  
    3.03000n    849.9948m     -3.0207u  
    3.04000n    849.9904m     -6.5676u  
    3.05000n    849.9861m    -10.1146u  
    3.06000n    849.9997m    728.3809n  
    3.07000n    849.9991m      0.       
    3.08000n    849.9994m    575.7572n  
    3.09000n    849.9994m    575.4240n  
    3.10000n    849.9994m    575.7736n  
    3.11000n    849.9994m    575.7587n  
    3.12000n    849.9994m    575.7586n  
    3.13000n    849.9994m    575.7586n  
    3.14000n    849.9994m    575.7587n  
    3.15000n    849.9994m    575.7587n  
    3.16000n    849.9994m    575.7587n  
    3.17000n    849.9994m    575.7587n  
    3.18000n    849.9994m    575.7587n  
    3.19000n    849.9994m    575.7586n  
    3.20000n    849.9994m    575.7586n  
    3.21000n    849.9994m    575.7586n  
    3.22000n    849.9994m    575.7586n  
    3.23000n    849.9994m    575.7586n  
    3.24000n    849.9994m    575.7586n  
    3.25000n    849.9994m    575.7586n  
    3.26000n    849.9994m    575.7586n  
    3.27000n    849.9994m    575.7586n  
    3.28000n    849.9994m    575.7586n  
    3.29000n    849.9994m    575.7586n  
    3.30000n    849.9994m    575.7586n  
    3.31000n    849.9994m    575.7587n  
    3.32000n    849.9994m    575.7587n  
    3.33000n    849.9994m    575.7587n  
    3.34000n    849.9994m    575.7587n  
    3.35000n    849.9994m    575.7587n  
    3.36000n    849.9994m    575.7587n  
    3.37000n    849.9994m    575.7587n  
    3.38000n    849.9994m    575.7587n  
    3.39000n    849.9994m    575.7587n  
    3.40000n    849.9994m    575.7587n  
    3.41000n    849.9994m    575.7587n  
    3.42000n    849.9994m    575.7587n  
    3.43000n    849.9994m    575.7587n  
    3.44000n    849.9994m    575.7587n  
    3.45000n    849.9994m    575.7587n  
    3.46000n    849.9994m    575.7587n  
    3.47000n    849.9994m    575.7587n  
    3.48000n    849.9994m    575.7587n  
    3.49000n    849.9994m    575.7586n  
    3.50000n    849.9994m    575.7586n  
    3.51000n    849.9994m    575.7586n  
    3.52000n    849.9994m    575.7586n  
    3.53000n    849.9994m    575.7586n  
    3.54000n    849.9994m    575.7586n  
    3.55000n    849.9994m    575.7586n  
    3.56000n    849.9994m    575.7586n  
    3.57000n    849.9994m    575.7586n  
    3.58000n    849.9994m    575.7586n  
    3.59000n    849.9994m    575.7586n  
    3.60000n    849.9994m    575.7586n  
    3.61000n    849.9994m    575.7586n  
    3.62000n    849.9994m    575.7586n  
    3.63000n    849.9994m    575.7586n  
    3.64000n    849.9994m    575.7586n  
    3.65000n    849.9994m    575.7586n  
    3.66000n    849.9994m    575.7586n  
    3.67000n    849.9994m    575.7586n  
    3.68000n    849.9994m    575.7586n  
    3.69000n    849.9994m    575.7586n  
    3.70000n    849.9994m    575.7587n  
    3.71000n    849.9994m    575.7587n  
    3.72000n    849.9994m    575.7587n  
    3.73000n    849.9994m    575.7587n  
    3.74000n    849.9994m    575.7587n  
    3.75000n    849.9994m    575.7587n  
    3.76000n    849.9994m    575.7587n  
    3.77000n    849.9994m    575.7587n  
    3.78000n    849.9994m    575.7587n  
    3.79000n    849.9994m    575.7587n  
    3.80000n    849.9994m    575.7587n  
    3.81000n    849.9994m    575.7587n  
    3.82000n    849.9994m    575.7587n  
    3.83000n    849.9994m    575.7587n  
    3.84000n    849.9994m    575.7587n  
    3.85000n    849.9994m    575.7587n  
    3.86000n    849.9994m    575.7587n  
    3.87000n    849.9994m    575.7587n  
    3.88000n    849.9994m    575.7587n  
    3.89000n    849.9994m    575.7587n  
    3.90000n    849.9994m    575.7586n  
    3.91000n    849.9994m    575.7586n  
    3.92000n    849.9994m    575.7586n  
    3.93000n    849.9994m    575.7586n  
    3.94000n    849.9994m    575.7586n  
    3.95000n    849.9994m    575.7586n  
    3.96000n    849.9994m    575.7586n  
    3.97000n    849.9994m    575.7586n  
    3.98000n    849.9994m    575.7586n  
    3.99000n    849.9994m    575.7586n  
    4.00000n    849.9994m    575.7586n  
y

          ***** job concluded
1****** HSPICE -- F-2011.09-SP2 64-BIT (Feb 27 2012) linux ******               
 ******  
 $ netlist of inverter

  ******  job statistics summary tnom=  25.000 temp=  25.000 *****
  
  
 ******  Machine Information  ******
 CPU:
 model name	: Intel(R) Xeon(R) CPU E5-2650 v4 @ 2.20GHz
 cpu MHz	: 2137.781
  
 OS:
 Linux version 3.10.0-693.17.1.el7.x86_64 (mockbuild@x86-041.build.eng.bos.redha
 t.com) (gcc version 4.8.5 20150623 (Red Hat 4.8.5-16) (GCC) ) #1 SMP Sun Jan 14
  10:36:03 EST 2018


  ******  HSPICE Threads Information  ******

  Command Line Threads Count :     1
  Available CPU Count        :    24
  Actual Threads Count       :     1


  ******  Circuit Statistics  ******
  # nodes       =      44 # elements   =      19
  # resistors   =       0 # capacitors =       0 # inductors   =       0
  # mutual_inds =       0 # vccs       =       0 # vcvs        =       0
  # cccs        =       0 # ccvs       =       0 # volt_srcs   =       3
  # curr_srcs   =       0 # diodes     =       0 # bjts        =       0
  # jfets       =       0 # mosfets    =      16 # U elements  =       0
  # T elements  =       0 # W elements =       0 # B elements  =       0
  # S elements  =       0 # P elements =       0 # va device   =       0
  # vector_srcs =       0


  ******  Runtime Statistics (seconds)  ******

  analysis           time    # points   tot. iter  conv.iter
  op point           0.00           1           4
  transient          0.06         401         637         137 rev=         8
  readin             0.00
  errchk             0.01
  setup              0.00
  output             0.01


           peak memory used        135.46 megabytes
           total cpu time            0.08 seconds
           total elapsed time        0.57 seconds
           job started at     22:56:13 09/14/2020
           job ended   at     22:56:13 09/14/2020


 lic: Release hspice token(s) 
