 ****** HSPICE -- F-2011.09-SP2 64-BIT (Feb 27 2012) linux ******               
  Copyright (C) 2011 Synopsys, Inc. All Rights Reserved.                        
  Unpublished-rights reserved under US copyright laws.
  This program is protected by law and is subject to the
  terms and conditions of the license agreement from Synopsys.
  Use of this program is your acceptance to be bound by the
  license agreement. HSPICE is the trademark of Synopsys, Inc.
  Input File: ptm10lstp.sp                                                      
  Command line options: ptm10lstp.sp
 lic:  
 lic: FLEXlm: v10.8 
 lic: USER:   iliabautista         HOSTNAME: itn3.rc.usf.edu 
 lic: HOSTID:                      PID:      73717 
 lic: Using FLEXlm license file: 
 lic: 27000@license0.rc.usf.edu 
 lic: Checkout 1 hspice 
 lic: License/Maintenance for hspice will expire on 18-jul-2021/2019.06 
 lic: 1(in_use)/50(total) FLOATING license(s) on SERVER license0.rc.usf.edu 
 lic:   
  **warning** (../modelfiles/lstp/10nfet.pm:4) Model nfet device geometries will not be checked against the limits set by lmin, lmax, nfinmin and nfinmax. To enable this check, add a period(.) to the model name(i.e. enable model selector).
1****** HSPICE -- F-2011.09-SP2 64-BIT (Feb 27 2012) linux ******               
 ******  
 $ netlist of inverter

  ******  circuit name directory
 circuit number to circuit name directory
   number circuitname                     definition         multiplier
        0 main circuit
        1 xinput_0.                       inverter           1.00 
        2 xmodel_uut_grid.                model_uut_grid     1.00 
        3 xoutput_00.                     inverter           1.00 
        4 xoutput_01.                     inverter           1.00 
        5 xoutput_02.                     inverter           1.00 
        6 xoutput_03.                     inverter           1.00 
        7 xinput_0.xpfet.                 pfet               1.00 
        8 xinput_0.xnfet.                 nfet               1.00 
        9 xmodel_uut_grid.xinverter00.    inverter           1.00 
       10 xoutput_00.xpfet.               pfet               1.00 
       11 xoutput_00.xnfet.               nfet               1.00 
       12 xoutput_01.xpfet.               pfet               1.00 
       13 xoutput_01.xnfet.               nfet               1.00 
       14 xoutput_02.xpfet.               pfet               1.00 
       15 xoutput_02.xnfet.               nfet               1.00 
       16 xoutput_03.xpfet.               pfet               1.00 
       17 xoutput_03.xnfet.               nfet               1.00 
       18 xmodel_uut_grid.xinverter00.xpfet.
                                            pfet               1.00 
       19 xmodel_uut_grid.xinverter00.xnfet.
                                            nfet               1.00 
1****** HSPICE -- F-2011.09-SP2 64-BIT (Feb 27 2012) linux ******               
 ******  
 $ netlist of inverter

  ******  mos   model parameters tnom=  25.000 temp=  25.000 *****
 Model Name: pfet 
 BSIM-MG BULK Model(Level72)
   VERSION = 105.03  
   DEVTYPE = -1 
   BULKMOD = 1  
   COREMOD = 0 
   GEOMOD = 1 
   RDSMOD = 1 
   IGCMOD = 1 
   IGBMOD = 1 
   GIDLMOD = 0 
   IIMOD = 0 
   NQSMOD = 0 
   SHMOD = 0 
   RGATEMOD = 0 
   RGEOMOD = 1 
   CGEOMOD = 2 
   CAPMOD = 0 
   LINT =      0 m
   LL =      0 m^(LLN+1)
   LLN =      1 
   DLC =      0 m
   DLBIN =      0 
   LLC =      0 m^(LLN+1)
   EOT = 8.8e-10 m
   TOXP = 1.2e-09 m
   EOTBOX = 1.4e-07 m
   HFIN = 2.1e-08 m
   FECH =      1 
   DELTAW =      0 m
   FECHCV =      1 
   DELTAWCV =      0 m
   NBODY = 2.5e+22 m^-3
   NSD =  3e+26 m^-3
   PHIG =  4.566 eV
   EPSROX =    3.9 
   EPSRSUB =   11.9 
   EASUB =   4.05 eV
   NI0SUB = 1.1e+16 m^-3
   BG0SUB =   1.12 eV
   NC0SUB = 2.86e+25 m^-3
   NGATE =      0 m^-3
   CIT = 1.3e-05 F/m^2
   CDSC =  0.024 F/m^2
   CDSCD =  0.007 F/m^2
   CDSCDR =  0.007 
   DVT0 =   0.01 
   DVT1 =   0.69 
   PHIN =   0.05 V
   ETA0 =   0.57 
   ETA0R =   0.57 
   DSUB =    0.9 
   K1RSCE =      0 V^1/2
   LPE0 =  5e-09 m
   DVTSHIFT =      0 
   QMFACTOR =      0 
   QMTCENIV =      0 
   QMTCENCV =      0 
   AQMTCEN =      0 
   BQMTCEN = 1.2e-08 
   ETAQM =   0.54 
   QM0 = 0.001143 
   PQM =   0.66 
   QM0ACC =  0.001 
   PQMACC =   0.66 
   VSAT = 1.29e+05 
   AVSAT =      0 
   BVSAT =  1e-07 
   VSAT1 = 1.29e+05 
   AVSAT1 =      0 
   BVSAT1 =  1e-07 
   DELTAVSAT =      1 
   KSATIV =    0.8 
   MEXP =      3 
   AMEXP =      0 
   BMEXP =      1 
   PTWG =      0 
   APTWG =      0 
   BPTWG =  1e-07 
   AT = -0.00156 
   TMEXP =      0 
   PTWGT =  0.004 
   U0 =  0.036 
   ETAMOB =      2 
   UP =      0 
   LPA =      1 
   UA =    0.3 
   AUA =      0 
   BUA =  1e-07 
   EU =    1.8 
   AEU =      0 
   BEU =  1e-07 
   UD =      0 
   AUD =      0 
   BUD =  5e-08 
   UCS =      0 
   UTE =      0 
   UTL = -0.0015 
   UA1 = 0.001032 
   UD1 =      0 
   UCSTE = -0.00478 
   RDSWMIN =      0 
   RDSW =    100 
   ARDSW =      0 
   BRDSW =  1e-07 
   RSWMIN =      0 
   RSW =      0 
   ARSW =      0 
   BRSW =  1e-07 
   RDWMIN =      0 
   RDW =      0 
   ARDW =      0 
   BRDW =  1e-07 
   PRWG =      0 
   WR =      1 
   PRT =  0.001 
   PDIBL1 =    1.3 
   PDIBL2 = 0.0002 
   DROUT =   1.06 
   PVAG =      1 
   PCLM =    0.2 
   APCLM =      0 
   BPCLM =  1e-07 
   PCLMG =      0 
   VASAT =    0.6 
   PCLMCV =  0.013 
   PCLMGCV =      0 
   VASATCV =    0.2 
   RGEXT =      0 ohm
   RGFIN =  0.001 ohm
   RSHS =      0 ohm
   RSHD =      0 ohm
   HEPI = 8.5e-09 m
   TSILI =  7e-09 m
   RHOC =  7e-13 ohm/m^2
   RHORSD =      1 ohm/m
   RHOEXT =      1 ohm/m
   CRATIO =    0.5 
   DELTAPRSD =      0 m
   SDTERM = 0 
   LSP = 2.8e-09 m
   LDG =  2e-09 m
   EPSRSP =    3.9 
   TGATE =  8e-09 m
   TMASK =      0 m
   ASILIEND =      0 m^2
   ARSDEND =      0 m^2
   PRSDEND =      0 m
   NSDE =  6e+25 m^-3
   RGEOA =      1 
   RGEOB =      0 m^-1
   RGEOC =      0 m^-1
   RGEOD =      0 m^-1
   RGEOE =      0 m^-1
   CGEOA =      1 
   CGEOB =      0 m^-1
   CGEOC =      0 m^-1
   CGEOD =      0 m^-1
   CGEOE =      1 
   AIGBINV = 0.0111 (Fs^2/g)^0.5m^-1
   BIGBINV =   0.03 (Fs^2/g)^0.5m^-1
   CIGBINV =  0.006 V^-1
   EIGBINV =    1.1 V
   NIGBINV =    1.2 
   AIGBACC = 0.0149 
   BIGBACC = 0.000949 
   CIGBACC =  0.075 
   NIGBACC =      3 
   AIGC = 0.0136 (Fs^2/g)^0.5m^-1
   BIGC = 0.00171 (Fs^2/g)^0.5m^-1V^-1
   CIGC =  0.075 V^-1
   NIGC =      1 
   DLCIGS =      0 m
   AIGS = 0.0136 (Fs^2/g)^0.5m^-1
   BIGS = 0.00171 (Fs^2/g)^0.5m^-1V^-1
   CIGS =  0.075 V^-1
   DLCIGD =      0 m
   AIGD = 0.0136 (Fs^2/g)^0.5m^-1
   BIGD = 0.00171 (Fs^2/g)^0.5m^-1V^-1
   CIGD =  0.075 V^-1
   POXEDGE =      1 
   AGIDL = 5.729e-12 ohm^-1
   BGIDL =  3e+08 V/m
   EGIDL =    0.1 V
   AGISL = 5.729e-12 ohm^-1
   BGISL =  3e+08 V/m
   EGISL =    0.1 V
   ALPHA0 =      0 mV^-1
   ALPHA1 =      0 V^-1
   BETA0 =     30 V^-1
   ALPHAII =      0 
   BETAII0 =      0 V^-1
   BETAII1 =      0 
   BETAII2 =    0.1 V
   ESATII =  1e+07 V/m
   LII =  5e-10 V/m
   SII0 =    0.5 V^-1
   SII1 =    0.1 
   SII2 =      0 V
   SIID =      0 V
   EOTACC = 8.8e-10 m
   DELVFBACC =      0 V
   CFS = 2.56e-11 F/m
   CFD = 2.65e-11 F/m
   COVS = 2.5e-11 F/m
   COVD = 2.5e-11 F/m
   CGSO =      0 F/m
   CGDO =      0 F/m
   CGSL =      0 F/m
   CGDL =      0 F/m
   CKAPPAS =    0.6 V
   CKAPPAD =    0.6 V
   CGBO =      0 F/m
   CGBL =      0 F/m
   CKAPPAB =    0.6 V
   CSDESW =      0 F/m
   CJS = 0.0005 F/m^2
   CJD = 0.0005 F/m^2
   CJSWS =  5e-10 F/m
   CJSWD =  5e-10 F/m
   CJSWGS =      0 F/m
   CJSWGD =      0 F/m
   PBS =      1 V
   PBD =      1 V
   PBSWS =      1 V
   PBSWD =      1 V
   PBSWGS =      1 V
   PBSWGD =      1 V
   MJS, =    0.5 
   MJD =    0.5 
   MJSWS =   0.33 
   MJSWD =   0.33 
   MJSWGS =   0.33 
   MJSWGD =   0.33 
   SJS =      0 
   SJD =      0 
   SJSWS =      0 
   SJSWD =      0 
   SJSWGS =      0 
   SJSWGD =      0 
   MJS2 =  0.125 
   MJD2 =  0.125 
   MJSWS2 =   0.33 
   MJSWD2 =   0.33 
   MJSWGS2 =   0.33 
   MJSWGD2 =   0.33 
   JSS = 0.0001 A/m^2
   JSD = 0.0001 A/m^2
   JSWS =      0 A/m
   JSWD =      0 A/m
   JSWGS =      0 A/m
   JSWGD =      0 A/m
   NJS =      1 
   NJD =      1 
   IJTHSFWD =    0.1 A
   IJTHDFWD =    0.1 A
   IJTHSREV =    0.1 A
   IJTHDREV =    0.1 A
   BVS =     10 V
   BVD =     10 V
   XJBVS =      1 
   XJBVD =      1 
   JTSS =      0 A/m^2
   JTSD =      0 A/m^2
   JTSSWS =      0 A/m
   JTSSWD =      0 A/m
   JTSSWGS =      0 A/m
   JTSSWGD =      0 A/m
   JTWEFF =      0 m
   NJTS =     20 
   NJTSD =     20 
   NJTSSW =     20 
   NJTSSWD =     20 
   NJTSSWG =     20 
   NJTSSWGD =     20 
   VTSS =     10 V
   VTSD =     10 V
   VTSSWS =     10 V
   VTSSWD =     10 V
   VTSSWGS =     10 V
   VTSSWGD =     10 V
   LINTIGEN =      0 m
   NTGEN =      1 
   AIGEN =      0 m^-3V^-1
   BIGEN =      0 m^-3V^-3
   XRCRG1 =     12 
   XRCRG2 =      1 
   NSEG = 5 
   EF =      1 
   EM = 4.1e+07 V/m
   NOIA = 6.25e+39 eV^-1s^1-EFm^-3
   NOIB = 3.125e+24 eV^-1s^1-EFm^-1
   NOIC = 8.75e+07 eV^-1s^1-EFm
   NTNOI =      1 
   TNOM =  300.1 K
   TBGASUB = 0.000702 eV/K
   TBGBSUB =   1108 K
   KT1 =      0 V
   KT1L =      0 Vm
   IIT =   -0.5 
   TII =      0 
   TGIDL = -0.0003 K^-1
   IGT =    2.5 
   TCJ =      0 K^-1
   TCJSW =      0 K^-1
   TCJSWG =      0 K^-1
   TPB =      0 K^-1
   TPBSW =      0 K^-1
   TPBSWG =      0 K^-1
   XTIS =      3 
   XTID =      3 
   XTSS =   0.02 
   XTSD =   0.02 
   XTSSWS =   0.02 
   XTSSWD =   0.02 
   XTSSWGS =   0.02 
   XTSSWGD =   0.02 
   TNJTS =      0 
   TNJTSD =      0 
   TNJTSSW =      0 
   TNJTSSWD =      0 
   TNJTSSWG =      0 
   TNJTSSWGD =      0 
   RTH0 =   0.01 ohm
   CTH0 =  1e-05 F
   WTH0 =      0 m
   LNBODY =      0 
   NNBODY =      0 
   PNBODY =      0 
   LPHIG =      0 
   NPHIG =      0 
   PPHIG =      0 
   LNGATE =      0 
   NNGATE =      0 
   PNGATE =      0 
   LCIT =      0 
   NCIT =      0 
   PCIT =      0 
   LCDSC =      0 
   NCDSC =      0 
   PCDSC =      0 
   LCDSCD =      0 
   NCDSCD =      0 
   PCDSCD =      0 
   LCDSCDR =      0 
   NCDSCDR =      0 
   PCDSCDR =      0 
   LDVT0 =      0 
   NDVT0 =      0 
   PDVT0 =      0 
   LDVT1 =      0 
   NDVT1 =      0 
   PDVT1 =      0 
   LPHIN =      0 
   NPHIN =      0 
   PPHIN =      0 
   LETA0 =      0 
   NETA0 =      0 
   PETA0 =      0 
   LETA0R =      0 
   NETA0R =      0 
   PETA0R =      0 
   LDSUB =      0 
   NDSUB =      0 
   PDSUB =      0 
   LK1RSCE =      0 
   NK1RSCE =      0 
   PK1RSCE =      0 
   LLPE0 =      0 
   NLPE0 =      0 
   PLPE0 =      0 
   LQMFACTOR =      0 
   NQMFACTOR =      0 
   PQMFACTOR =      0 
   LQMTCENIV =      0 
   NQMTCENIV =      0 
   PQMTCENIV =      0 
   LQMTCENCV =      0 
   NQMTCENCV =      0 
   PQMTCENCV =      0 
   LVSAT =      0 
   NVSAT =      0 
   PVSAT =      0 
   LKSATIV =      0 
   NKSATIV =      0 
   PKSATIV =      0 
   LMEXP =      0 
   NMEXP =      0 
   PMEXP =      0 
   LPTWG =      0 
   NPTWG =      0 
   PPTWG =      0 
   LTHETASAT =      0 
   NTHETASAT =      0 
   PTHETASAT =      0 
   LU0 =      0 
   NU0 =      0 
   PU0 =      0 
   LUP =      0 
   NUP =      0 
   PUP =      0 
   LUA =      0 
   NUA =      0 
   PUA =      0 
   LEU =      0 
   NEU =      0 
   PEU =      0 
   LUD =      0 
   NUD =      0 
   PUD =      0 
   LUCS =      0 
   NUCS =      0 
   PUCS =      0 
   LPCLM =      0 
   NPCLM =      0 
   PPCLM =      0 
   LPCLMCV =      0 
   NPCLMCV =      0 
   PPCLMCV =      0 
   LRDSW =      0 
   NRDSW =      0 
   PRDSW =      0 
   LRSW =      0 
   NRSW =      0 
   PRSW =      0 
   LRDW =      0 
   NRDW =      0 
   PRDW =      0 
   LPRWG =      0 
   NPRWG =      0 
   PPRWG =      0 
   LWR =      0 
   NWR =      0 
   PWR =      0 
   LPDIBL1 =      0 
   NPDIBL1 =      0 
   PPDIBL1 =      0 
   LPDIBL2 =      0 
   NPDIBL2 =      0 
   PPDIBL2 =      0 
   LDROUT =      0 
   NDROUT =      0 
   PDROUT =      0 
   LPVAG =      0 
   NPVAG =      0 
   PPVAG =      0 
   LAIGBINV =      0 
   NAIGBINV =      0 
   PAIGBINV =      0 
   LBIGBINV =      0 
   NBIGBINV =      0 
   PBIGBINV =      0 
   LCIGBINV =      0 
   NCIGBINV =      0 
   PCIGBINV =      0 
   LEIGBINV =      0 
   NEIGBINV =      0 
   PEIGBINV =      0 
   LNIGBINV =      0 
   NNIGBINV =      0 
   PNIGBINV =      0 
   LAIGC =      0 
   NAIGC =      0 
   PAIGC =      0 
   LBIGC =      0 
   NBIGC =      0 
   PBIGC =      0 
   LCIGC =      0 
   NCIGC =      0 
   PCIGC =      0 
   LNIGC =      0 
   NNIGC =      0 
   PNIGC =      0 
   LAIGS =      0 
   NAIGS =      0 
   PAIGS =      0 
   LBIGS =      0 
   NBIGS =      0 
   PBIGS =      0 
   LCIGS =      0 
   NCIGS =      0 
   PCIGS =      0 
   LAIGD =      0 
   NAIGD =      0 
   PAIGD =      0 
   LBIGD =      0 
   NBIGD =      0 
   PBIGD =      0 
   LCIGD =      0 
   NCIGD =      0 
   PCIGD =      0 
   LPOXEDGE =      0 
   NPOXEDGE =      0 
   PPOXEDGE =      0 
   LAGIDL =      0 
   NAGIDL =      0 
   PAGIDL =      0 
   LBGIDL =      0 
   NBGIDL =      0 
   PBGIDL =      0 
   LEGIDL =      0 
   NEGIDL =      0 
   PEGIDL =      0 
   LAGISL =      0 
   NAGISL =      0 
   PAGISL =      0 
   LBGISL =      0 
   NBGISL =      0 
   PBGISL =      0 
   LEGISL =      0 
   NEGISL =      0 
   PEGISL =      0 
   LALPHA0 =      0 
   NALPHA0 =      0 
   PALPHA0 =      0 
   LALPHA1 =      0 
   NALPHA1 =      0 
   PALPHA1 =      0 
   LBETA0 =      0 
   NBETA0 =      0 
   PBETA0 =      0 
   LALPHAII =      0 
   NALPHAII =      0 
   PALPHAII =      0 
   LBETAII0 =      0 
   NBETAII0 =      0 
   PBETAII0 =      0 
   LBETAII1 =      0 
   NBETAII1 =      0 
   PBETAII1 =      0 
   LBETAII2 =      0 
   NBETAII2 =      0 
   PBETAII2 =      0 
   LESATII =      0 
   NESATII =      0 
   PESATII =      0 
   LLII =      0 
   NLII =      0 
   PLII =      0 
   LSII0 =      0 
   NSII0 =      0 
   PSII0 =      0 
   LSII1 =      0 
   NSII1 =      0 
   PSII1 =      0 
   LSII2 =      0 
   NSII2 =      0 
   PSII2 =      0 
   LSIID =      0 
   NSIID =      0 
   PSIID =      0 
   LCFS =      0 
   NCFS =      0 
   PCFS =      0 
   LCFD =      0 
   NCFD =      0 
   PCFD =      0 
   LCOVS =      0 
   NCOVS =      0 
   PCOVS =      0 
   LCOVD =      0 
   NCOVD =      0 
   PCOVD =      0 
   LCGSL =      0 
   NCGSL =      0 
   PCGSL =      0 
   LCGDL =      0 
   NCGDL =      0 
   PCGDL =      0 
   LCKAPPAS =      0 
   NCKAPPAS =      0 
   PCKAPPAS =      0 
   LCKAPPAD =      0 
   NCKAPPAD =      0 
   PCKAPPAD =      0 
   LCGBL =      0 
   NCGBL =      0 
   PCGBL =      0 
   LCKAPPAB =      0 
   NCKAPPAB =      0 
   PCKAPPAB =      0 
   LNTGEN =      0 
   NNTGEN =      0 
   PNTGEN =      0 
   LAIGEN =      0 
   NAIGEN =      0 
   PAIGEN =      0 
   LBIGEN =      0 
   NBIGEN =      0 
   PBIGEN =      0 
   LXRCRG1 =      0 
   NXRCRG1 =      0 
   PXRCRG1 =      0 
   LXRCRG2 =      0 
   NXRCRG2 =      0 
   PXRCRG2 =      0 
   LINTNOI =      0 
   NINTNOI =      0 
   PINTNOI =      0 
   LUTE =      0 
   NUTE =      0 
   PUTE =      0 
   LUTL =      0 
   NUTL =      0 
   PUTL =      0 
   LUA1 =      0 
   NUA1 =      0 
   PUA1 =      0 
   LUD1 =      0 
   NUD1 =      0 
   PUD1 =      0 
   LUCSTE =      0 
   NUCSTE =      0 
   PUCSTE =      0 
   LPTWGT =      0 
   NPTWGT =      0 
   PPTWGT =      0 
   LAT =      0 
   NAT =      0 
   PAT =      0 
   LSTTHETASAT =      0 
   NSTTHETASAT =      0 
   PSTTHETASAT =      0 
   LPRT =      0 
   NPRT =      0 
   PPRT =      0 
   LIIT =      0 
   NIIT =      0 
   PIIT =      0 
   LTII =      0 
   NTII =      0 
   PTII =      0 
   LTGIDL =      0 
   NTGIDL =      0 
   PTGIDL =      0 
   LIGT =      0 
   NIGT =      0 
   PIGT =      0 
   L = 1.4e-08 m
   D =  4e-08 m
   TFIN =  8e-09 m
   FPITCH = 2.8e-08 m
   NF = 1 
   NFIN = 1 
   NGCON = 1 
   ASEO =      0 m^2
   ADEO =      0 m^2
   PSEO =      0 m
   PDEO =      0 m
   ASEJ =      0 m^2
   ADEJ =      0 m^2
   PSEJ =      0 m
   PDEJ =      0 m
   CGSP =      0 F
   CGDP =      0 F
   CDSP =      0 F
   NRS =      0 
   NRD =      0 
   LRSD = 1.4e-08 m
   XL =      0 m
   DELVTRAND =      0 
   U0MULT =      1 
   IDS0MULT =      1 
   Lmin =  1e-08 m
   Lmax =  3e-08 m
   NFINmin = 0 
   NFINmax = 1 
   LVSAT1 =      0 
   NVSAT1 =      0 
   PVSAT1 =      0 
   LETAMOB =      0 
   NETAMOB =      0 
   PETAMOB =      0 
   LPCLMG =      0 
   NPCLMG =      0 
   PPCLMG =      0 
   LVASAT =      0 
   NVASAT =      0 
   PVASAT =      0 
   LAIGBACC =      0 
   NAIGBACC =      0 
   PAIGBACC =      0 
   LBIGBACC =      0 
   NBIGBACC =      0 
   PBIGBACC =      0 
   LCIGBACC =      0 
   NCIGBACC =      0 
   PCIGBACC =      0 
   LNIGBACC =      0 
   NNIGBACC =      0 
   PNIGBACC =      0 
 Model Name: nfet 
 BSIM-MG BULK Model(Level72)
   VERSION = 105.03  
   DEVTYPE = 1 
   BULKMOD = 1  
   COREMOD = 0 
   GEOMOD = 1 
   RDSMOD = 1 
   IGCMOD = 1 
   IGBMOD = 1 
   GIDLMOD = 0 
   IIMOD = 0 
   NQSMOD = 0 
   SHMOD = 0 
   RGATEMOD = 0 
   RGEOMOD = 1 
   CGEOMOD = 2 
   CAPMOD = 0 
   LINT =      0 m
   LL =      0 m^(LLN+1)
   LLN =      1 
   DLC =      0 m
   DLBIN =      0 
   LLC =      0 m^(LLN+1)
   EOT = 8.8e-10 m
   TOXP = 1.2e-09 m
   EOTBOX = 1.4e-07 m
   HFIN = 2.1e-08 m
   FECH =      1 
   DELTAW =      0 m
   FECHCV =      1 
   DELTAWCV =      0 m
   NBODY = 2.5e+22 m^-3
   NSD =  3e+26 m^-3
   PHIG =  4.604 eV
   EPSROX =    3.9 
   EPSRSUB =   11.9 
   EASUB =   4.05 eV
   NI0SUB = 1.1e+16 m^-3
   BG0SUB =   1.12 eV
   NC0SUB = 2.86e+25 m^-3
   NGATE =      0 m^-3
   CIT = 1.3e-05 F/m^2
   CDSC =  0.022 F/m^2
   CDSCD =  0.007 F/m^2
   CDSCDR =  0.007 
   DVT0 =   0.01 
   DVT1 =   0.69 
   PHIN =   0.05 V
   ETA0 = 0.4079 
   ETA0R = 0.4079 
   DSUB =    0.9 
   K1RSCE =      0 V^1/2
   LPE0 =  5e-09 m
   DVTSHIFT =      0 
   QMFACTOR =      0 
   QMTCENIV =      0 
   QMTCENCV =      0 
   AQMTCEN =      0 
   BQMTCEN = 1.2e-08 
   ETAQM =   0.54 
   QM0 = 0.001143 
   PQM =   0.66 
   QM0ACC =  0.001 
   PQMACC =   0.66 
   VSAT = 1.32e+05 
   AVSAT =      0 
   BVSAT =  1e-07 
   VSAT1 = 1.32e+05 
   AVSAT1 =      0 
   BVSAT1 =  1e-07 
   DELTAVSAT =      1 
   KSATIV =    0.8 
   MEXP =      3 
   AMEXP =      0 
   BMEXP =      1 
   PTWG =      0 
   APTWG =      0 
   BPTWG =  1e-07 
   AT = -0.00156 
   TMEXP =      0 
   PTWGT =  0.004 
   U0 = 0.0568 
   ETAMOB =      2 
   UP =      0 
   LPA =      1 
   UA =    0.3 
   AUA =      0 
   BUA =  1e-07 
   EU =    1.8 
   AEU =      0 
   BEU =  1e-07 
   UD =      0 
   AUD =      0 
   BUD =  5e-08 
   UCS =      0 
   UTE =      0 
   UTL = -0.0015 
   UA1 = 0.001032 
   UD1 =      0 
   UCSTE = -0.00478 
   RDSWMIN =      0 
   RDSW =    100 
   ARDSW =      0 
   BRDSW =  1e-07 
   RSWMIN =      0 
   RSW =      0 
   ARSW =      0 
   BRSW =  1e-07 
   RDWMIN =      0 
   RDW =      0 
   ARDW =      0 
   BRDW =  1e-07 
   PRWG =      0 
   WR =      1 
   PRT =  0.001 
   PDIBL1 =    1.3 
   PDIBL2 = 0.0002 
   DROUT =   1.06 
   PVAG =      1 
   PCLM =    0.2 
   APCLM =      0 
   BPCLM =  1e-07 
   PCLMG =      0 
   VASAT =    0.6 
   PCLMCV =  0.013 
   PCLMGCV =      0 
   VASATCV =    0.2 
   RGEXT =      0 ohm
   RGFIN =  0.001 ohm
   RSHS =      0 ohm
   RSHD =      0 ohm
   HEPI = 8.5e-09 m
   TSILI =  7e-09 m
   RHOC =  6e-13 ohm/m^2
   RHORSD =      1 ohm/m
   RHOEXT =      1 ohm/m
   CRATIO =    0.5 
   DELTAPRSD =      0 m
   SDTERM = 0 
   LSP = 2.8e-09 m
   LDG =  2e-09 m
   EPSRSP =    3.9 
   TGATE =  8e-09 m
   TMASK =      0 m
   ASILIEND =      0 m^2
   ARSDEND =      0 m^2
   PRSDEND =      0 m
   NSDE =  6e+25 m^-3
   RGEOA =      1 
   RGEOB =      0 m^-1
   RGEOC =      0 m^-1
   RGEOD =      0 m^-1
   RGEOE =      0 m^-1
   CGEOA =      1 
   CGEOB =      0 m^-1
   CGEOC =      0 m^-1
   CGEOD =      0 m^-1
   CGEOE =      1 
   AIGBINV = 0.0111 (Fs^2/g)^0.5m^-1
   BIGBINV =   0.03 (Fs^2/g)^0.5m^-1
   CIGBINV =  0.006 V^-1
   EIGBINV =    1.1 V
   NIGBINV =    1.2 
   AIGBACC = 0.0149 
   BIGBACC = 0.000949 
   CIGBACC =  0.075 
   NIGBACC =      3 
   AIGC = 0.0136 (Fs^2/g)^0.5m^-1
   BIGC = 0.00171 (Fs^2/g)^0.5m^-1V^-1
   CIGC =  0.075 V^-1
   NIGC =      1 
   DLCIGS =      0 m
   AIGS = 0.0136 (Fs^2/g)^0.5m^-1
   BIGS = 0.00171 (Fs^2/g)^0.5m^-1V^-1
   CIGS =  0.075 V^-1
   DLCIGD =      0 m
   AIGD = 0.0136 (Fs^2/g)^0.5m^-1
   BIGD = 0.00171 (Fs^2/g)^0.5m^-1V^-1
   CIGD =  0.075 V^-1
   POXEDGE =      1 
   AGIDL = 5.729e-12 ohm^-1
   BGIDL =  3e+08 V/m
   EGIDL =    0.1 V
   AGISL = 5.729e-12 ohm^-1
   BGISL =  3e+08 V/m
   EGISL =    0.1 V
   ALPHA0 =      0 mV^-1
   ALPHA1 =      0 V^-1
   BETA0 =     30 V^-1
   ALPHAII =      0 
   BETAII0 =      0 V^-1
   BETAII1 =      0 
   BETAII2 =    0.1 V
   ESATII =  1e+07 V/m
   LII =  5e-10 V/m
   SII0 =    0.5 V^-1
   SII1 =    0.1 
   SII2 =      0 V
   SIID =      0 V
   EOTACC = 8.8e-10 m
   DELVFBACC =      0 V
   CFS = 2.56e-11 F/m
   CFD = 2.65e-11 F/m
   COVS = 2.5e-11 F/m
   COVD = 2.5e-11 F/m
   CGSO =      0 F/m
   CGDO =      0 F/m
   CGSL =      0 F/m
   CGDL =      0 F/m
   CKAPPAS =    0.6 V
   CKAPPAD =    0.6 V
   CGBO =      0 F/m
   CGBL =      0 F/m
   CKAPPAB =    0.6 V
   CSDESW =      0 F/m
   CJS = 0.0005 F/m^2
   CJD = 0.0005 F/m^2
   CJSWS =  5e-10 F/m
   CJSWD =  5e-10 F/m
   CJSWGS =      0 F/m
   CJSWGD =      0 F/m
   PBS =      1 V
   PBD =      1 V
   PBSWS =      1 V
   PBSWD =      1 V
   PBSWGS =      1 V
   PBSWGD =      1 V
   MJS, =    0.5 
   MJD =    0.5 
   MJSWS =   0.33 
   MJSWD =   0.33 
   MJSWGS =   0.33 
   MJSWGD =   0.33 
   SJS =      0 
   SJD =      0 
   SJSWS =      0 
   SJSWD =      0 
   SJSWGS =      0 
   SJSWGD =      0 
   MJS2 =  0.125 
   MJD2 =  0.125 
   MJSWS2 =   0.33 
   MJSWD2 =   0.33 
   MJSWGS2 =   0.33 
   MJSWGD2 =   0.33 
   JSS = 0.0001 A/m^2
   JSD = 0.0001 A/m^2
   JSWS =      0 A/m
   JSWD =      0 A/m
   JSWGS =      0 A/m
   JSWGD =      0 A/m
   NJS =      1 
   NJD =      1 
   IJTHSFWD =    0.1 A
   IJTHDFWD =    0.1 A
   IJTHSREV =    0.1 A
   IJTHDREV =    0.1 A
   BVS =     10 V
   BVD =     10 V
   XJBVS =      1 
   XJBVD =      1 
   JTSS =      0 A/m^2
   JTSD =      0 A/m^2
   JTSSWS =      0 A/m
   JTSSWD =      0 A/m
   JTSSWGS =      0 A/m
   JTSSWGD =      0 A/m
   JTWEFF =      0 m
   NJTS =     20 
   NJTSD =     20 
   NJTSSW =     20 
   NJTSSWD =     20 
   NJTSSWG =     20 
   NJTSSWGD =     20 
   VTSS =     10 V
   VTSD =     10 V
   VTSSWS =     10 V
   VTSSWD =     10 V
   VTSSWGS =     10 V
   VTSSWGD =     10 V
   LINTIGEN =      0 m
   NTGEN =      1 
   AIGEN =      0 m^-3V^-1
   BIGEN =      0 m^-3V^-3
   XRCRG1 =     12 
   XRCRG2 =      1 
   NSEG = 5 
   EF =      1 
   EM = 4.1e+07 V/m
   NOIA = 6.25e+39 eV^-1s^1-EFm^-3
   NOIB = 3.125e+24 eV^-1s^1-EFm^-1
   NOIC = 8.75e+07 eV^-1s^1-EFm
   NTNOI =      1 
   TNOM =  300.1 K
   TBGASUB = 0.000702 eV/K
   TBGBSUB =   1108 K
   KT1 =      0 V
   KT1L =      0 Vm
   IIT =   -0.5 
   TII =      0 
   TGIDL = -0.0003 K^-1
   IGT =    2.5 
   TCJ =      0 K^-1
   TCJSW =      0 K^-1
   TCJSWG =      0 K^-1
   TPB =      0 K^-1
   TPBSW =      0 K^-1
   TPBSWG =      0 K^-1
   XTIS =      3 
   XTID =      3 
   XTSS =   0.02 
   XTSD =   0.02 
   XTSSWS =   0.02 
   XTSSWD =   0.02 
   XTSSWGS =   0.02 
   XTSSWGD =   0.02 
   TNJTS =      0 
   TNJTSD =      0 
   TNJTSSW =      0 
   TNJTSSWD =      0 
   TNJTSSWG =      0 
   TNJTSSWGD =      0 
   RTH0 =   0.01 ohm
   CTH0 =  1e-05 F
   WTH0 =      0 m
   LNBODY =      0 
   NNBODY =      0 
   PNBODY =      0 
   LPHIG =      0 
   NPHIG =      0 
   PPHIG =      0 
   LNGATE =      0 
   NNGATE =      0 
   PNGATE =      0 
   LCIT =      0 
   NCIT =      0 
   PCIT =      0 
   LCDSC =      0 
   NCDSC =      0 
   PCDSC =      0 
   LCDSCD =      0 
   NCDSCD =      0 
   PCDSCD =      0 
   LCDSCDR =      0 
   NCDSCDR =      0 
   PCDSCDR =      0 
   LDVT0 =      0 
   NDVT0 =      0 
   PDVT0 =      0 
   LDVT1 =      0 
   NDVT1 =      0 
   PDVT1 =      0 
   LPHIN =      0 
   NPHIN =      0 
   PPHIN =      0 
   LETA0 =      0 
   NETA0 =      0 
   PETA0 =      0 
   LETA0R =      0 
   NETA0R =      0 
   PETA0R =      0 
   LDSUB =      0 
   NDSUB =      0 
   PDSUB =      0 
   LK1RSCE =      0 
   NK1RSCE =      0 
   PK1RSCE =      0 
   LLPE0 =      0 
   NLPE0 =      0 
   PLPE0 =      0 
   LQMFACTOR =      0 
   NQMFACTOR =      0 
   PQMFACTOR =      0 
   LQMTCENIV =      0 
   NQMTCENIV =      0 
   PQMTCENIV =      0 
   LQMTCENCV =      0 
   NQMTCENCV =      0 
   PQMTCENCV =      0 
   LVSAT =      0 
   NVSAT =      0 
   PVSAT =      0 
   LKSATIV =      0 
   NKSATIV =      0 
   PKSATIV =      0 
   LMEXP =      0 
   NMEXP =      0 
   PMEXP =      0 
   LPTWG =      0 
   NPTWG =      0 
   PPTWG =      0 
   LTHETASAT =      0 
   NTHETASAT =      0 
   PTHETASAT =      0 
   LU0 =      0 
   NU0 =      0 
   PU0 =      0 
   LUP =      0 
   NUP =      0 
   PUP =      0 
   LUA =      0 
   NUA =      0 
   PUA =      0 
   LEU =      0 
   NEU =      0 
   PEU =      0 
   LUD =      0 
   NUD =      0 
   PUD =      0 
   LUCS =      0 
   NUCS =      0 
   PUCS =      0 
   LPCLM =      0 
   NPCLM =      0 
   PPCLM =      0 
   LPCLMCV =      0 
   NPCLMCV =      0 
   PPCLMCV =      0 
   LRDSW =      0 
   NRDSW =      0 
   PRDSW =      0 
   LRSW =      0 
   NRSW =      0 
   PRSW =      0 
   LRDW =      0 
   NRDW =      0 
   PRDW =      0 
   LPRWG =      0 
   NPRWG =      0 
   PPRWG =      0 
   LWR =      0 
   NWR =      0 
   PWR =      0 
   LPDIBL1 =      0 
   NPDIBL1 =      0 
   PPDIBL1 =      0 
   LPDIBL2 =      0 
   NPDIBL2 =      0 
   PPDIBL2 =      0 
   LDROUT =      0 
   NDROUT =      0 
   PDROUT =      0 
   LPVAG =      0 
   NPVAG =      0 
   PPVAG =      0 
   LAIGBINV =      0 
   NAIGBINV =      0 
   PAIGBINV =      0 
   LBIGBINV =      0 
   NBIGBINV =      0 
   PBIGBINV =      0 
   LCIGBINV =      0 
   NCIGBINV =      0 
   PCIGBINV =      0 
   LEIGBINV =      0 
   NEIGBINV =      0 
   PEIGBINV =      0 
   LNIGBINV =      0 
   NNIGBINV =      0 
   PNIGBINV =      0 
   LAIGC =      0 
   NAIGC =      0 
   PAIGC =      0 
   LBIGC =      0 
   NBIGC =      0 
   PBIGC =      0 
   LCIGC =      0 
   NCIGC =      0 
   PCIGC =      0 
   LNIGC =      0 
   NNIGC =      0 
   PNIGC =      0 
   LAIGS =      0 
   NAIGS =      0 
   PAIGS =      0 
   LBIGS =      0 
   NBIGS =      0 
   PBIGS =      0 
   LCIGS =      0 
   NCIGS =      0 
   PCIGS =      0 
   LAIGD =      0 
   NAIGD =      0 
   PAIGD =      0 
   LBIGD =      0 
   NBIGD =      0 
   PBIGD =      0 
   LCIGD =      0 
   NCIGD =      0 
   PCIGD =      0 
   LPOXEDGE =      0 
   NPOXEDGE =      0 
   PPOXEDGE =      0 
   LAGIDL =      0 
   NAGIDL =      0 
   PAGIDL =      0 
   LBGIDL =      0 
   NBGIDL =      0 
   PBGIDL =      0 
   LEGIDL =      0 
   NEGIDL =      0 
   PEGIDL =      0 
   LAGISL =      0 
   NAGISL =      0 
   PAGISL =      0 
   LBGISL =      0 
   NBGISL =      0 
   PBGISL =      0 
   LEGISL =      0 
   NEGISL =      0 
   PEGISL =      0 
   LALPHA0 =      0 
   NALPHA0 =      0 
   PALPHA0 =      0 
   LALPHA1 =      0 
   NALPHA1 =      0 
   PALPHA1 =      0 
   LBETA0 =      0 
   NBETA0 =      0 
   PBETA0 =      0 
   LALPHAII =      0 
   NALPHAII =      0 
   PALPHAII =      0 
   LBETAII0 =      0 
   NBETAII0 =      0 
   PBETAII0 =      0 
   LBETAII1 =      0 
   NBETAII1 =      0 
   PBETAII1 =      0 
   LBETAII2 =      0 
   NBETAII2 =      0 
   PBETAII2 =      0 
   LESATII =      0 
   NESATII =      0 
   PESATII =      0 
   LLII =      0 
   NLII =      0 
   PLII =      0 
   LSII0 =      0 
   NSII0 =      0 
   PSII0 =      0 
   LSII1 =      0 
   NSII1 =      0 
   PSII1 =      0 
   LSII2 =      0 
   NSII2 =      0 
   PSII2 =      0 
   LSIID =      0 
   NSIID =      0 
   PSIID =      0 
   LCFS =      0 
   NCFS =      0 
   PCFS =      0 
   LCFD =      0 
   NCFD =      0 
   PCFD =      0 
   LCOVS =      0 
   NCOVS =      0 
   PCOVS =      0 
   LCOVD =      0 
   NCOVD =      0 
   PCOVD =      0 
   LCGSL =      0 
   NCGSL =      0 
   PCGSL =      0 
   LCGDL =      0 
   NCGDL =      0 
   PCGDL =      0 
   LCKAPPAS =      0 
   NCKAPPAS =      0 
   PCKAPPAS =      0 
   LCKAPPAD =      0 
   NCKAPPAD =      0 
   PCKAPPAD =      0 
   LCGBL =      0 
   NCGBL =      0 
   PCGBL =      0 
   LCKAPPAB =      0 
   NCKAPPAB =      0 
   PCKAPPAB =      0 
   LNTGEN =      0 
   NNTGEN =      0 
   PNTGEN =      0 
   LAIGEN =      0 
   NAIGEN =      0 
   PAIGEN =      0 
   LBIGEN =      0 
   NBIGEN =      0 
   PBIGEN =      0 
   LXRCRG1 =      0 
   NXRCRG1 =      0 
   PXRCRG1 =      0 
   LXRCRG2 =      0 
   NXRCRG2 =      0 
   PXRCRG2 =      0 
   LINTNOI =      0 
   NINTNOI =      0 
   PINTNOI =      0 
   LUTE =      0 
   NUTE =      0 
   PUTE =      0 
   LUTL =      0 
   NUTL =      0 
   PUTL =      0 
   LUA1 =      0 
   NUA1 =      0 
   PUA1 =      0 
   LUD1 =      0 
   NUD1 =      0 
   PUD1 =      0 
   LUCSTE =      0 
   NUCSTE =      0 
   PUCSTE =      0 
   LPTWGT =      0 
   NPTWGT =      0 
   PPTWGT =      0 
   LAT =      0 
   NAT =      0 
   PAT =      0 
   LSTTHETASAT =      0 
   NSTTHETASAT =      0 
   PSTTHETASAT =      0 
   LPRT =      0 
   NPRT =      0 
   PPRT =      0 
   LIIT =      0 
   NIIT =      0 
   PIIT =      0 
   LTII =      0 
   NTII =      0 
   PTII =      0 
   LTGIDL =      0 
   NTGIDL =      0 
   PTGIDL =      0 
   LIGT =      0 
   NIGT =      0 
   PIGT =      0 
   L = 1.4e-08 m
   D =  4e-08 m
   TFIN =  8e-09 m
   FPITCH = 2.8e-08 m
   NF = 1 
   NFIN = 1 
   NGCON = 1 
   ASEO =      0 m^2
   ADEO =      0 m^2
   PSEO =      0 m
   PDEO =      0 m
   ASEJ =      0 m^2
   ADEJ =      0 m^2
   PSEJ =      0 m
   PDEJ =      0 m
   CGSP =      0 F
   CGDP =      0 F
   CDSP =      0 F
   NRS =      0 
   NRD =      0 
   LRSD = 1.4e-08 m
   XL =      0 m
   DELVTRAND =      0 
   U0MULT =      1 
   IDS0MULT =      1 
   Lmin =  1e-08 m
   Lmax =  3e-08 m
   NFINmin = 0 
   NFINmax = 1 
   LVSAT1 =      0 
   NVSAT1 =      0 
   PVSAT1 =      0 
   LETAMOB =      0 
   NETAMOB =      0 
   PETAMOB =      0 
   LPCLMG =      0 
   NPCLMG =      0 
   PPCLMG =      0 
   LVASAT =      0 
   NVASAT =      0 
   PVASAT =      0 
   LAIGBACC =      0 
   NAIGBACC =      0 
   PAIGBACC =      0 
   LBIGBACC =      0 
   NBIGBACC =      0 
   PBIGBACC =      0 
   LCIGBACC =      0 
   NCIGBACC =      0 
   PCIGBACC =      0 
   LNIGBACC =      0 
   NNIGBACC =      0 
   PNIGBACC =      0 
 Model Name: pfet 
 BSIM-MG BULK Model(Level72)
   VERSION = 105.03  
   DEVTYPE = -1 
   BULKMOD = 1  
   COREMOD = 0 
   GEOMOD = 1 
   RDSMOD = 1 
   IGCMOD = 1 
   IGBMOD = 1 
   GIDLMOD = 0 
   IIMOD = 0 
   NQSMOD = 0 
   SHMOD = 0 
   RGATEMOD = 0 
   RGEOMOD = 1 
   CGEOMOD = 2 
   CAPMOD = 0 
   LINT =      0 m
   LL =      0 m^(LLN+1)
   LLN =      1 
   DLC =      0 m
   DLBIN =      0 
   LLC =      0 m^(LLN+1)
   EOT = 8.8e-10 m
   TOXP = 1.2e-09 m
   EOTBOX = 1.4e-07 m
   HFIN = 2.1e-08 m
   FECH =      1 
   DELTAW =      0 m
   FECHCV =      1 
   DELTAWCV =      0 m
   NBODY = 2.5e+22 m^-3
   NSD =  3e+26 m^-3
   PHIG =  4.566 eV
   EPSROX =    3.9 
   EPSRSUB =   11.9 
   EASUB =   4.05 eV
   NI0SUB = 1.1e+16 m^-3
   BG0SUB =   1.12 eV
   NC0SUB = 2.86e+25 m^-3
   NGATE =      0 m^-3
   CIT = 1.3e-05 F/m^2
   CDSC =  0.024 F/m^2
   CDSCD =  0.007 F/m^2
   CDSCDR =  0.007 
   DVT0 =   0.01 
   DVT1 =   0.69 
   PHIN =   0.05 V
   ETA0 =   0.57 
   ETA0R =   0.57 
   DSUB =    0.9 
   K1RSCE =      0 V^1/2
   LPE0 =  5e-09 m
   DVTSHIFT =      0 
   QMFACTOR =      0 
   QMTCENIV =      0 
   QMTCENCV =      0 
   AQMTCEN =      0 
   BQMTCEN = 1.2e-08 
   ETAQM =   0.54 
   QM0 = 0.001143 
   PQM =   0.66 
   QM0ACC =  0.001 
   PQMACC =   0.66 
   VSAT = 1.29e+05 
   AVSAT =      0 
   BVSAT =  1e-07 
   VSAT1 = 1.29e+05 
   AVSAT1 =      0 
   BVSAT1 =  1e-07 
   DELTAVSAT =      1 
   KSATIV =    0.8 
   MEXP =      3 
   AMEXP =      0 
   BMEXP =      1 
   PTWG =      0 
   APTWG =      0 
   BPTWG =  1e-07 
   AT = -0.00156 
   TMEXP =      0 
   PTWGT =  0.004 
   U0 =  0.036 
   ETAMOB =      2 
   UP =      0 
   LPA =      1 
   UA =    0.3 
   AUA =      0 
   BUA =  1e-07 
   EU =    1.8 
   AEU =      0 
   BEU =  1e-07 
   UD =      0 
   AUD =      0 
   BUD =  5e-08 
   UCS =      0 
   UTE =      0 
   UTL = -0.0015 
   UA1 = 0.001032 
   UD1 =      0 
   UCSTE = -0.00478 
   RDSWMIN =      0 
   RDSW =    100 
   ARDSW =      0 
   BRDSW =  1e-07 
   RSWMIN =      0 
   RSW =      0 
   ARSW =      0 
   BRSW =  1e-07 
   RDWMIN =      0 
   RDW =      0 
   ARDW =      0 
   BRDW =  1e-07 
   PRWG =      0 
   WR =      1 
   PRT =  0.001 
   PDIBL1 =    1.3 
   PDIBL2 = 0.0002 
   DROUT =   1.06 
   PVAG =      1 
   PCLM =    0.2 
   APCLM =      0 
   BPCLM =  1e-07 
   PCLMG =      0 
   VASAT =    0.6 
   PCLMCV =  0.013 
   PCLMGCV =      0 
   VASATCV =    0.2 
   RGEXT =      0 ohm
   RGFIN =  0.001 ohm
   RSHS =      0 ohm
   RSHD =      0 ohm
   HEPI = 8.5e-09 m
   TSILI =  7e-09 m
   RHOC =  7e-13 ohm/m^2
   RHORSD =      1 ohm/m
   RHOEXT =      1 ohm/m
   CRATIO =    0.5 
   DELTAPRSD =      0 m
   SDTERM = 0 
   LSP = 2.8e-09 m
   LDG =  2e-09 m
   EPSRSP =    3.9 
   TGATE =  8e-09 m
   TMASK =      0 m
   ASILIEND =      0 m^2
   ARSDEND =      0 m^2
   PRSDEND =      0 m
   NSDE =  6e+25 m^-3
   RGEOA =      1 
   RGEOB =      0 m^-1
   RGEOC =      0 m^-1
   RGEOD =      0 m^-1
   RGEOE =      0 m^-1
   CGEOA =      1 
   CGEOB =      0 m^-1
   CGEOC =      0 m^-1
   CGEOD =      0 m^-1
   CGEOE =      1 
   AIGBINV = 0.0111 (Fs^2/g)^0.5m^-1
   BIGBINV =   0.03 (Fs^2/g)^0.5m^-1
   CIGBINV =  0.006 V^-1
   EIGBINV =    1.1 V
   NIGBINV =    1.2 
   AIGBACC = 0.0149 
   BIGBACC = 0.000949 
   CIGBACC =  0.075 
   NIGBACC =      3 
   AIGC = 0.0136 (Fs^2/g)^0.5m^-1
   BIGC = 0.00171 (Fs^2/g)^0.5m^-1V^-1
   CIGC =  0.075 V^-1
   NIGC =      1 
   DLCIGS =      0 m
   AIGS = 0.0136 (Fs^2/g)^0.5m^-1
   BIGS = 0.00171 (Fs^2/g)^0.5m^-1V^-1
   CIGS =  0.075 V^-1
   DLCIGD =      0 m
   AIGD = 0.0136 (Fs^2/g)^0.5m^-1
   BIGD = 0.00171 (Fs^2/g)^0.5m^-1V^-1
   CIGD =  0.075 V^-1
   POXEDGE =      1 
   AGIDL = 5.729e-12 ohm^-1
   BGIDL =  3e+08 V/m
   EGIDL =    0.1 V
   AGISL = 5.729e-12 ohm^-1
   BGISL =  3e+08 V/m
   EGISL =    0.1 V
   ALPHA0 =      0 mV^-1
   ALPHA1 =      0 V^-1
   BETA0 =     30 V^-1
   ALPHAII =      0 
   BETAII0 =      0 V^-1
   BETAII1 =      0 
   BETAII2 =    0.1 V
   ESATII =  1e+07 V/m
   LII =  5e-10 V/m
   SII0 =    0.5 V^-1
   SII1 =    0.1 
   SII2 =      0 V
   SIID =      0 V
   EOTACC = 8.8e-10 m
   DELVFBACC =      0 V
   CFS = 2.56e-11 F/m
   CFD = 2.65e-11 F/m
   COVS = 2.5e-11 F/m
   COVD = 2.5e-11 F/m
   CGSO =      0 F/m
   CGDO =      0 F/m
   CGSL =      0 F/m
   CGDL =      0 F/m
   CKAPPAS =    0.6 V
   CKAPPAD =    0.6 V
   CGBO =      0 F/m
   CGBL =      0 F/m
   CKAPPAB =    0.6 V
   CSDESW =      0 F/m
   CJS = 0.0005 F/m^2
   CJD = 0.0005 F/m^2
   CJSWS =  5e-10 F/m
   CJSWD =  5e-10 F/m
   CJSWGS =      0 F/m
   CJSWGD =      0 F/m
   PBS =      1 V
   PBD =      1 V
   PBSWS =      1 V
   PBSWD =      1 V
   PBSWGS =      1 V
   PBSWGD =      1 V
   MJS, =    0.5 
   MJD =    0.5 
   MJSWS =   0.33 
   MJSWD =   0.33 
   MJSWGS =   0.33 
   MJSWGD =   0.33 
   SJS =      0 
   SJD =      0 
   SJSWS =      0 
   SJSWD =      0 
   SJSWGS =      0 
   SJSWGD =      0 
   MJS2 =  0.125 
   MJD2 =  0.125 
   MJSWS2 =   0.33 
   MJSWD2 =   0.33 
   MJSWGS2 =   0.33 
   MJSWGD2 =   0.33 
   JSS = 0.0001 A/m^2
   JSD = 0.0001 A/m^2
   JSWS =      0 A/m
   JSWD =      0 A/m
   JSWGS =      0 A/m
   JSWGD =      0 A/m
   NJS =      1 
   NJD =      1 
   IJTHSFWD =    0.1 A
   IJTHDFWD =    0.1 A
   IJTHSREV =    0.1 A
   IJTHDREV =    0.1 A
   BVS =     10 V
   BVD =     10 V
   XJBVS =      1 
   XJBVD =      1 
   JTSS =      0 A/m^2
   JTSD =      0 A/m^2
   JTSSWS =      0 A/m
   JTSSWD =      0 A/m
   JTSSWGS =      0 A/m
   JTSSWGD =      0 A/m
   JTWEFF =      0 m
   NJTS =     20 
   NJTSD =     20 
   NJTSSW =     20 
   NJTSSWD =     20 
   NJTSSWG =     20 
   NJTSSWGD =     20 
   VTSS =     10 V
   VTSD =     10 V
   VTSSWS =     10 V
   VTSSWD =     10 V
   VTSSWGS =     10 V
   VTSSWGD =     10 V
   LINTIGEN =      0 m
   NTGEN =      1 
   AIGEN =      0 m^-3V^-1
   BIGEN =      0 m^-3V^-3
   XRCRG1 =     12 
   XRCRG2 =      1 
   NSEG = 5 
   EF =      1 
   EM = 4.1e+07 V/m
   NOIA = 6.25e+39 eV^-1s^1-EFm^-3
   NOIB = 3.125e+24 eV^-1s^1-EFm^-1
   NOIC = 8.75e+07 eV^-1s^1-EFm
   NTNOI =      1 
   TNOM =  300.1 K
   TBGASUB = 0.000702 eV/K
   TBGBSUB =   1108 K
   KT1 =      0 V
   KT1L =      0 Vm
   IIT =   -0.5 
   TII =      0 
   TGIDL = -0.0003 K^-1
   IGT =    2.5 
   TCJ =      0 K^-1
   TCJSW =      0 K^-1
   TCJSWG =      0 K^-1
   TPB =      0 K^-1
   TPBSW =      0 K^-1
   TPBSWG =      0 K^-1
   XTIS =      3 
   XTID =      3 
   XTSS =   0.02 
   XTSD =   0.02 
   XTSSWS =   0.02 
   XTSSWD =   0.02 
   XTSSWGS =   0.02 
   XTSSWGD =   0.02 
   TNJTS =      0 
   TNJTSD =      0 
   TNJTSSW =      0 
   TNJTSSWD =      0 
   TNJTSSWG =      0 
   TNJTSSWGD =      0 
   RTH0 =   0.01 ohm
   CTH0 =  1e-05 F
   WTH0 =      0 m
   LNBODY =      0 
   NNBODY =      0 
   PNBODY =      0 
   LPHIG =      0 
   NPHIG =      0 
   PPHIG =      0 
   LNGATE =      0 
   NNGATE =      0 
   PNGATE =      0 
   LCIT =      0 
   NCIT =      0 
   PCIT =      0 
   LCDSC =      0 
   NCDSC =      0 
   PCDSC =      0 
   LCDSCD =      0 
   NCDSCD =      0 
   PCDSCD =      0 
   LCDSCDR =      0 
   NCDSCDR =      0 
   PCDSCDR =      0 
   LDVT0 =      0 
   NDVT0 =      0 
   PDVT0 =      0 
   LDVT1 =      0 
   NDVT1 =      0 
   PDVT1 =      0 
   LPHIN =      0 
   NPHIN =      0 
   PPHIN =      0 
   LETA0 =      0 
   NETA0 =      0 
   PETA0 =      0 
   LETA0R =      0 
   NETA0R =      0 
   PETA0R =      0 
   LDSUB =      0 
   NDSUB =      0 
   PDSUB =      0 
   LK1RSCE =      0 
   NK1RSCE =      0 
   PK1RSCE =      0 
   LLPE0 =      0 
   NLPE0 =      0 
   PLPE0 =      0 
   LQMFACTOR =      0 
   NQMFACTOR =      0 
   PQMFACTOR =      0 
   LQMTCENIV =      0 
   NQMTCENIV =      0 
   PQMTCENIV =      0 
   LQMTCENCV =      0 
   NQMTCENCV =      0 
   PQMTCENCV =      0 
   LVSAT =      0 
   NVSAT =      0 
   PVSAT =      0 
   LKSATIV =      0 
   NKSATIV =      0 
   PKSATIV =      0 
   LMEXP =      0 
   NMEXP =      0 
   PMEXP =      0 
   LPTWG =      0 
   NPTWG =      0 
   PPTWG =      0 
   LTHETASAT =      0 
   NTHETASAT =      0 
   PTHETASAT =      0 
   LU0 =      0 
   NU0 =      0 
   PU0 =      0 
   LUP =      0 
   NUP =      0 
   PUP =      0 
   LUA =      0 
   NUA =      0 
   PUA =      0 
   LEU =      0 
   NEU =      0 
   PEU =      0 
   LUD =      0 
   NUD =      0 
   PUD =      0 
   LUCS =      0 
   NUCS =      0 
   PUCS =      0 
   LPCLM =      0 
   NPCLM =      0 
   PPCLM =      0 
   LPCLMCV =      0 
   NPCLMCV =      0 
   PPCLMCV =      0 
   LRDSW =      0 
   NRDSW =      0 
   PRDSW =      0 
   LRSW =      0 
   NRSW =      0 
   PRSW =      0 
   LRDW =      0 
   NRDW =      0 
   PRDW =      0 
   LPRWG =      0 
   NPRWG =      0 
   PPRWG =      0 
   LWR =      0 
   NWR =      0 
   PWR =      0 
   LPDIBL1 =      0 
   NPDIBL1 =      0 
   PPDIBL1 =      0 
   LPDIBL2 =      0 
   NPDIBL2 =      0 
   PPDIBL2 =      0 
   LDROUT =      0 
   NDROUT =      0 
   PDROUT =      0 
   LPVAG =      0 
   NPVAG =      0 
   PPVAG =      0 
   LAIGBINV =      0 
   NAIGBINV =      0 
   PAIGBINV =      0 
   LBIGBINV =      0 
   NBIGBINV =      0 
   PBIGBINV =      0 
   LCIGBINV =      0 
   NCIGBINV =      0 
   PCIGBINV =      0 
   LEIGBINV =      0 
   NEIGBINV =      0 
   PEIGBINV =      0 
   LNIGBINV =      0 
   NNIGBINV =      0 
   PNIGBINV =      0 
   LAIGC =      0 
   NAIGC =      0 
   PAIGC =      0 
   LBIGC =      0 
   NBIGC =      0 
   PBIGC =      0 
   LCIGC =      0 
   NCIGC =      0 
   PCIGC =      0 
   LNIGC =      0 
   NNIGC =      0 
   PNIGC =      0 
   LAIGS =      0 
   NAIGS =      0 
   PAIGS =      0 
   LBIGS =      0 
   NBIGS =      0 
   PBIGS =      0 
   LCIGS =      0 
   NCIGS =      0 
   PCIGS =      0 
   LAIGD =      0 
   NAIGD =      0 
   PAIGD =      0 
   LBIGD =      0 
   NBIGD =      0 
   PBIGD =      0 
   LCIGD =      0 
   NCIGD =      0 
   PCIGD =      0 
   LPOXEDGE =      0 
   NPOXEDGE =      0 
   PPOXEDGE =      0 
   LAGIDL =      0 
   NAGIDL =      0 
   PAGIDL =      0 
   LBGIDL =      0 
   NBGIDL =      0 
   PBGIDL =      0 
   LEGIDL =      0 
   NEGIDL =      0 
   PEGIDL =      0 
   LAGISL =      0 
   NAGISL =      0 
   PAGISL =      0 
   LBGISL =      0 
   NBGISL =      0 
   PBGISL =      0 
   LEGISL =      0 
   NEGISL =      0 
   PEGISL =      0 
   LALPHA0 =      0 
   NALPHA0 =      0 
   PALPHA0 =      0 
   LALPHA1 =      0 
   NALPHA1 =      0 
   PALPHA1 =      0 
   LBETA0 =      0 
   NBETA0 =      0 
   PBETA0 =      0 
   LALPHAII =      0 
   NALPHAII =      0 
   PALPHAII =      0 
   LBETAII0 =      0 
   NBETAII0 =      0 
   PBETAII0 =      0 
   LBETAII1 =      0 
   NBETAII1 =      0 
   PBETAII1 =      0 
   LBETAII2 =      0 
   NBETAII2 =      0 
   PBETAII2 =      0 
   LESATII =      0 
   NESATII =      0 
   PESATII =      0 
   LLII =      0 
   NLII =      0 
   PLII =      0 
   LSII0 =      0 
   NSII0 =      0 
   PSII0 =      0 
   LSII1 =      0 
   NSII1 =      0 
   PSII1 =      0 
   LSII2 =      0 
   NSII2 =      0 
   PSII2 =      0 
   LSIID =      0 
   NSIID =      0 
   PSIID =      0 
   LCFS =      0 
   NCFS =      0 
   PCFS =      0 
   LCFD =      0 
   NCFD =      0 
   PCFD =      0 
   LCOVS =      0 
   NCOVS =      0 
   PCOVS =      0 
   LCOVD =      0 
   NCOVD =      0 
   PCOVD =      0 
   LCGSL =      0 
   NCGSL =      0 
   PCGSL =      0 
   LCGDL =      0 
   NCGDL =      0 
   PCGDL =      0 
   LCKAPPAS =      0 
   NCKAPPAS =      0 
   PCKAPPAS =      0 
   LCKAPPAD =      0 
   NCKAPPAD =      0 
   PCKAPPAD =      0 
   LCGBL =      0 
   NCGBL =      0 
   PCGBL =      0 
   LCKAPPAB =      0 
   NCKAPPAB =      0 
   PCKAPPAB =      0 
   LNTGEN =      0 
   NNTGEN =      0 
   PNTGEN =      0 
   LAIGEN =      0 
   NAIGEN =      0 
   PAIGEN =      0 
   LBIGEN =      0 
   NBIGEN =      0 
   PBIGEN =      0 
   LXRCRG1 =      0 
   NXRCRG1 =      0 
   PXRCRG1 =      0 
   LXRCRG2 =      0 
   NXRCRG2 =      0 
   PXRCRG2 =      0 
   LINTNOI =      0 
   NINTNOI =      0 
   PINTNOI =      0 
   LUTE =      0 
   NUTE =      0 
   PUTE =      0 
   LUTL =      0 
   NUTL =      0 
   PUTL =      0 
   LUA1 =      0 
   NUA1 =      0 
   PUA1 =      0 
   LUD1 =      0 
   NUD1 =      0 
   PUD1 =      0 
   LUCSTE =      0 
   NUCSTE =      0 
   PUCSTE =      0 
   LPTWGT =      0 
   NPTWGT =      0 
   PPTWGT =      0 
   LAT =      0 
   NAT =      0 
   PAT =      0 
   LSTTHETASAT =      0 
   NSTTHETASAT =      0 
   PSTTHETASAT =      0 
   LPRT =      0 
   NPRT =      0 
   PPRT =      0 
   LIIT =      0 
   NIIT =      0 
   PIIT =      0 
   LTII =      0 
   NTII =      0 
   PTII =      0 
   LTGIDL =      0 
   NTGIDL =      0 
   PTGIDL =      0 
   LIGT =      0 
   NIGT =      0 
   PIGT =      0 
   L = 1.4e-08 m
   D =  4e-08 m
   TFIN =  8e-09 m
   FPITCH = 2.8e-08 m
   NF = 1 
   NFIN = 1 
   NGCON = 1 
   ASEO =      0 m^2
   ADEO =      0 m^2
   PSEO =      0 m
   PDEO =      0 m
   ASEJ =      0 m^2
   ADEJ =      0 m^2
   PSEJ =      0 m
   PDEJ =      0 m
   CGSP =      0 F
   CGDP =      0 F
   CDSP =      0 F
   NRS =      0 
   NRD =      0 
   LRSD = 1.4e-08 m
   XL =      0 m
   DELVTRAND =      0 
   U0MULT =      1 
   IDS0MULT =      1 
   Lmin =  1e-08 m
   Lmax =  3e-08 m
   NFINmin = 0 
   NFINmax = 1 
   LVSAT1 =      0 
   NVSAT1 =      0 
   PVSAT1 =      0 
   LETAMOB =      0 
   NETAMOB =      0 
   PETAMOB =      0 
   LPCLMG =      0 
   NPCLMG =      0 
   PPCLMG =      0 
   LVASAT =      0 
   NVASAT =      0 
   PVASAT =      0 
   LAIGBACC =      0 
   NAIGBACC =      0 
   PAIGBACC =      0 
   LBIGBACC =      0 
   NBIGBACC =      0 
   PBIGBACC =      0 
   LCIGBACC =      0 
   NCIGBACC =      0 
   PCIGBACC =      0 
   LNIGBACC =      0 
   NNIGBACC =      0 
   PNIGBACC =      0 
 Model Name: nfet 
 BSIM-MG BULK Model(Level72)
   VERSION = 105.03  
   DEVTYPE = 1 
   BULKMOD = 1  
   COREMOD = 0 
   GEOMOD = 1 
   RDSMOD = 1 
   IGCMOD = 1 
   IGBMOD = 1 
   GIDLMOD = 0 
   IIMOD = 0 
   NQSMOD = 0 
   SHMOD = 0 
   RGATEMOD = 0 
   RGEOMOD = 1 
   CGEOMOD = 2 
   CAPMOD = 0 
   LINT =      0 m
   LL =      0 m^(LLN+1)
   LLN =      1 
   DLC =      0 m
   DLBIN =      0 
   LLC =      0 m^(LLN+1)
   EOT = 8.8e-10 m
   TOXP = 1.2e-09 m
   EOTBOX = 1.4e-07 m
   HFIN = 2.1e-08 m
   FECH =      1 
   DELTAW =      0 m
   FECHCV =      1 
   DELTAWCV =      0 m
   NBODY = 2.5e+22 m^-3
   NSD =  3e+26 m^-3
   PHIG =  4.604 eV
   EPSROX =    3.9 
   EPSRSUB =   11.9 
   EASUB =   4.05 eV
   NI0SUB = 1.1e+16 m^-3
   BG0SUB =   1.12 eV
   NC0SUB = 2.86e+25 m^-3
   NGATE =      0 m^-3
   CIT = 1.3e-05 F/m^2
   CDSC =  0.022 F/m^2
   CDSCD =  0.007 F/m^2
   CDSCDR =  0.007 
   DVT0 =   0.01 
   DVT1 =   0.69 
   PHIN =   0.05 V
   ETA0 = 0.4079 
   ETA0R = 0.4079 
   DSUB =    0.9 
   K1RSCE =      0 V^1/2
   LPE0 =  5e-09 m
   DVTSHIFT =      0 
   QMFACTOR =      0 
   QMTCENIV =      0 
   QMTCENCV =      0 
   AQMTCEN =      0 
   BQMTCEN = 1.2e-08 
   ETAQM =   0.54 
   QM0 = 0.001143 
   PQM =   0.66 
   QM0ACC =  0.001 
   PQMACC =   0.66 
   VSAT = 1.32e+05 
   AVSAT =      0 
   BVSAT =  1e-07 
   VSAT1 = 1.32e+05 
   AVSAT1 =      0 
   BVSAT1 =  1e-07 
   DELTAVSAT =      1 
   KSATIV =    0.8 
   MEXP =      3 
   AMEXP =      0 
   BMEXP =      1 
   PTWG =      0 
   APTWG =      0 
   BPTWG =  1e-07 
   AT = -0.00156 
   TMEXP =      0 
   PTWGT =  0.004 
   U0 = 0.0568 
   ETAMOB =      2 
   UP =      0 
   LPA =      1 
   UA =    0.3 
   AUA =      0 
   BUA =  1e-07 
   EU =    1.8 
   AEU =      0 
   BEU =  1e-07 
   UD =      0 
   AUD =      0 
   BUD =  5e-08 
   UCS =      0 
   UTE =      0 
   UTL = -0.0015 
   UA1 = 0.001032 
   UD1 =      0 
   UCSTE = -0.00478 
   RDSWMIN =      0 
   RDSW =    100 
   ARDSW =      0 
   BRDSW =  1e-07 
   RSWMIN =      0 
   RSW =      0 
   ARSW =      0 
   BRSW =  1e-07 
   RDWMIN =      0 
   RDW =      0 
   ARDW =      0 
   BRDW =  1e-07 
   PRWG =      0 
   WR =      1 
   PRT =  0.001 
   PDIBL1 =    1.3 
   PDIBL2 = 0.0002 
   DROUT =   1.06 
   PVAG =      1 
   PCLM =    0.2 
   APCLM =      0 
   BPCLM =  1e-07 
   PCLMG =      0 
   VASAT =    0.6 
   PCLMCV =  0.013 
   PCLMGCV =      0 
   VASATCV =    0.2 
   RGEXT =      0 ohm
   RGFIN =  0.001 ohm
   RSHS =      0 ohm
   RSHD =      0 ohm
   HEPI = 8.5e-09 m
   TSILI =  7e-09 m
   RHOC =  6e-13 ohm/m^2
   RHORSD =      1 ohm/m
   RHOEXT =      1 ohm/m
   CRATIO =    0.5 
   DELTAPRSD =      0 m
   SDTERM = 0 
   LSP = 2.8e-09 m
   LDG =  2e-09 m
   EPSRSP =    3.9 
   TGATE =  8e-09 m
   TMASK =      0 m
   ASILIEND =      0 m^2
   ARSDEND =      0 m^2
   PRSDEND =      0 m
   NSDE =  6e+25 m^-3
   RGEOA =      1 
   RGEOB =      0 m^-1
   RGEOC =      0 m^-1
   RGEOD =      0 m^-1
   RGEOE =      0 m^-1
   CGEOA =      1 
   CGEOB =      0 m^-1
   CGEOC =      0 m^-1
   CGEOD =      0 m^-1
   CGEOE =      1 
   AIGBINV = 0.0111 (Fs^2/g)^0.5m^-1
   BIGBINV =   0.03 (Fs^2/g)^0.5m^-1
   CIGBINV =  0.006 V^-1
   EIGBINV =    1.1 V
   NIGBINV =    1.2 
   AIGBACC = 0.0149 
   BIGBACC = 0.000949 
   CIGBACC =  0.075 
   NIGBACC =      3 
   AIGC = 0.0136 (Fs^2/g)^0.5m^-1
   BIGC = 0.00171 (Fs^2/g)^0.5m^-1V^-1
   CIGC =  0.075 V^-1
   NIGC =      1 
   DLCIGS =      0 m
   AIGS = 0.0136 (Fs^2/g)^0.5m^-1
   BIGS = 0.00171 (Fs^2/g)^0.5m^-1V^-1
   CIGS =  0.075 V^-1
   DLCIGD =      0 m
   AIGD = 0.0136 (Fs^2/g)^0.5m^-1
   BIGD = 0.00171 (Fs^2/g)^0.5m^-1V^-1
   CIGD =  0.075 V^-1
   POXEDGE =      1 
   AGIDL = 5.729e-12 ohm^-1
   BGIDL =  3e+08 V/m
   EGIDL =    0.1 V
   AGISL = 5.729e-12 ohm^-1
   BGISL =  3e+08 V/m
   EGISL =    0.1 V
   ALPHA0 =      0 mV^-1
   ALPHA1 =      0 V^-1
   BETA0 =     30 V^-1
   ALPHAII =      0 
   BETAII0 =      0 V^-1
   BETAII1 =      0 
   BETAII2 =    0.1 V
   ESATII =  1e+07 V/m
   LII =  5e-10 V/m
   SII0 =    0.5 V^-1
   SII1 =    0.1 
   SII2 =      0 V
   SIID =      0 V
   EOTACC = 8.8e-10 m
   DELVFBACC =      0 V
   CFS = 2.56e-11 F/m
   CFD = 2.65e-11 F/m
   COVS = 2.5e-11 F/m
   COVD = 2.5e-11 F/m
   CGSO =      0 F/m
   CGDO =      0 F/m
   CGSL =      0 F/m
   CGDL =      0 F/m
   CKAPPAS =    0.6 V
   CKAPPAD =    0.6 V
   CGBO =      0 F/m
   CGBL =      0 F/m
   CKAPPAB =    0.6 V
   CSDESW =      0 F/m
   CJS = 0.0005 F/m^2
   CJD = 0.0005 F/m^2
   CJSWS =  5e-10 F/m
   CJSWD =  5e-10 F/m
   CJSWGS =      0 F/m
   CJSWGD =      0 F/m
   PBS =      1 V
   PBD =      1 V
   PBSWS =      1 V
   PBSWD =      1 V
   PBSWGS =      1 V
   PBSWGD =      1 V
   MJS, =    0.5 
   MJD =    0.5 
   MJSWS =   0.33 
   MJSWD =   0.33 
   MJSWGS =   0.33 
   MJSWGD =   0.33 
   SJS =      0 
   SJD =      0 
   SJSWS =      0 
   SJSWD =      0 
   SJSWGS =      0 
   SJSWGD =      0 
   MJS2 =  0.125 
   MJD2 =  0.125 
   MJSWS2 =   0.33 
   MJSWD2 =   0.33 
   MJSWGS2 =   0.33 
   MJSWGD2 =   0.33 
   JSS = 0.0001 A/m^2
   JSD = 0.0001 A/m^2
   JSWS =      0 A/m
   JSWD =      0 A/m
   JSWGS =      0 A/m
   JSWGD =      0 A/m
   NJS =      1 
   NJD =      1 
   IJTHSFWD =    0.1 A
   IJTHDFWD =    0.1 A
   IJTHSREV =    0.1 A
   IJTHDREV =    0.1 A
   BVS =     10 V
   BVD =     10 V
   XJBVS =      1 
   XJBVD =      1 
   JTSS =      0 A/m^2
   JTSD =      0 A/m^2
   JTSSWS =      0 A/m
   JTSSWD =      0 A/m
   JTSSWGS =      0 A/m
   JTSSWGD =      0 A/m
   JTWEFF =      0 m
   NJTS =     20 
   NJTSD =     20 
   NJTSSW =     20 
   NJTSSWD =     20 
   NJTSSWG =     20 
   NJTSSWGD =     20 
   VTSS =     10 V
   VTSD =     10 V
   VTSSWS =     10 V
   VTSSWD =     10 V
   VTSSWGS =     10 V
   VTSSWGD =     10 V
   LINTIGEN =      0 m
   NTGEN =      1 
   AIGEN =      0 m^-3V^-1
   BIGEN =      0 m^-3V^-3
   XRCRG1 =     12 
   XRCRG2 =      1 
   NSEG = 5 
   EF =      1 
   EM = 4.1e+07 V/m
   NOIA = 6.25e+39 eV^-1s^1-EFm^-3
   NOIB = 3.125e+24 eV^-1s^1-EFm^-1
   NOIC = 8.75e+07 eV^-1s^1-EFm
   NTNOI =      1 
   TNOM =  300.1 K
   TBGASUB = 0.000702 eV/K
   TBGBSUB =   1108 K
   KT1 =      0 V
   KT1L =      0 Vm
   IIT =   -0.5 
   TII =      0 
   TGIDL = -0.0003 K^-1
   IGT =    2.5 
   TCJ =      0 K^-1
   TCJSW =      0 K^-1
   TCJSWG =      0 K^-1
   TPB =      0 K^-1
   TPBSW =      0 K^-1
   TPBSWG =      0 K^-1
   XTIS =      3 
   XTID =      3 
   XTSS =   0.02 
   XTSD =   0.02 
   XTSSWS =   0.02 
   XTSSWD =   0.02 
   XTSSWGS =   0.02 
   XTSSWGD =   0.02 
   TNJTS =      0 
   TNJTSD =      0 
   TNJTSSW =      0 
   TNJTSSWD =      0 
   TNJTSSWG =      0 
   TNJTSSWGD =      0 
   RTH0 =   0.01 ohm
   CTH0 =  1e-05 F
   WTH0 =      0 m
   LNBODY =      0 
   NNBODY =      0 
   PNBODY =      0 
   LPHIG =      0 
   NPHIG =      0 
   PPHIG =      0 
   LNGATE =      0 
   NNGATE =      0 
   PNGATE =      0 
   LCIT =      0 
   NCIT =      0 
   PCIT =      0 
   LCDSC =      0 
   NCDSC =      0 
   PCDSC =      0 
   LCDSCD =      0 
   NCDSCD =      0 
   PCDSCD =      0 
   LCDSCDR =      0 
   NCDSCDR =      0 
   PCDSCDR =      0 
   LDVT0 =      0 
   NDVT0 =      0 
   PDVT0 =      0 
   LDVT1 =      0 
   NDVT1 =      0 
   PDVT1 =      0 
   LPHIN =      0 
   NPHIN =      0 
   PPHIN =      0 
   LETA0 =      0 
   NETA0 =      0 
   PETA0 =      0 
   LETA0R =      0 
   NETA0R =      0 
   PETA0R =      0 
   LDSUB =      0 
   NDSUB =      0 
   PDSUB =      0 
   LK1RSCE =      0 
   NK1RSCE =      0 
   PK1RSCE =      0 
   LLPE0 =      0 
   NLPE0 =      0 
   PLPE0 =      0 
   LQMFACTOR =      0 
   NQMFACTOR =      0 
   PQMFACTOR =      0 
   LQMTCENIV =      0 
   NQMTCENIV =      0 
   PQMTCENIV =      0 
   LQMTCENCV =      0 
   NQMTCENCV =      0 
   PQMTCENCV =      0 
   LVSAT =      0 
   NVSAT =      0 
   PVSAT =      0 
   LKSATIV =      0 
   NKSATIV =      0 
   PKSATIV =      0 
   LMEXP =      0 
   NMEXP =      0 
   PMEXP =      0 
   LPTWG =      0 
   NPTWG =      0 
   PPTWG =      0 
   LTHETASAT =      0 
   NTHETASAT =      0 
   PTHETASAT =      0 
   LU0 =      0 
   NU0 =      0 
   PU0 =      0 
   LUP =      0 
   NUP =      0 
   PUP =      0 
   LUA =      0 
   NUA =      0 
   PUA =      0 
   LEU =      0 
   NEU =      0 
   PEU =      0 
   LUD =      0 
   NUD =      0 
   PUD =      0 
   LUCS =      0 
   NUCS =      0 
   PUCS =      0 
   LPCLM =      0 
   NPCLM =      0 
   PPCLM =      0 
   LPCLMCV =      0 
   NPCLMCV =      0 
   PPCLMCV =      0 
   LRDSW =      0 
   NRDSW =      0 
   PRDSW =      0 
   LRSW =      0 
   NRSW =      0 
   PRSW =      0 
   LRDW =      0 
   NRDW =      0 
   PRDW =      0 
   LPRWG =      0 
   NPRWG =      0 
   PPRWG =      0 
   LWR =      0 
   NWR =      0 
   PWR =      0 
   LPDIBL1 =      0 
   NPDIBL1 =      0 
   PPDIBL1 =      0 
   LPDIBL2 =      0 
   NPDIBL2 =      0 
   PPDIBL2 =      0 
   LDROUT =      0 
   NDROUT =      0 
   PDROUT =      0 
   LPVAG =      0 
   NPVAG =      0 
   PPVAG =      0 
   LAIGBINV =      0 
   NAIGBINV =      0 
   PAIGBINV =      0 
   LBIGBINV =      0 
   NBIGBINV =      0 
   PBIGBINV =      0 
   LCIGBINV =      0 
   NCIGBINV =      0 
   PCIGBINV =      0 
   LEIGBINV =      0 
   NEIGBINV =      0 
   PEIGBINV =      0 
   LNIGBINV =      0 
   NNIGBINV =      0 
   PNIGBINV =      0 
   LAIGC =      0 
   NAIGC =      0 
   PAIGC =      0 
   LBIGC =      0 
   NBIGC =      0 
   PBIGC =      0 
   LCIGC =      0 
   NCIGC =      0 
   PCIGC =      0 
   LNIGC =      0 
   NNIGC =      0 
   PNIGC =      0 
   LAIGS =      0 
   NAIGS =      0 
   PAIGS =      0 
   LBIGS =      0 
   NBIGS =      0 
   PBIGS =      0 
   LCIGS =      0 
   NCIGS =      0 
   PCIGS =      0 
   LAIGD =      0 
   NAIGD =      0 
   PAIGD =      0 
   LBIGD =      0 
   NBIGD =      0 
   PBIGD =      0 
   LCIGD =      0 
   NCIGD =      0 
   PCIGD =      0 
   LPOXEDGE =      0 
   NPOXEDGE =      0 
   PPOXEDGE =      0 
   LAGIDL =      0 
   NAGIDL =      0 
   PAGIDL =      0 
   LBGIDL =      0 
   NBGIDL =      0 
   PBGIDL =      0 
   LEGIDL =      0 
   NEGIDL =      0 
   PEGIDL =      0 
   LAGISL =      0 
   NAGISL =      0 
   PAGISL =      0 
   LBGISL =      0 
   NBGISL =      0 
   PBGISL =      0 
   LEGISL =      0 
   NEGISL =      0 
   PEGISL =      0 
   LALPHA0 =      0 
   NALPHA0 =      0 
   PALPHA0 =      0 
   LALPHA1 =      0 
   NALPHA1 =      0 
   PALPHA1 =      0 
   LBETA0 =      0 
   NBETA0 =      0 
   PBETA0 =      0 
   LALPHAII =      0 
   NALPHAII =      0 
   PALPHAII =      0 
   LBETAII0 =      0 
   NBETAII0 =      0 
   PBETAII0 =      0 
   LBETAII1 =      0 
   NBETAII1 =      0 
   PBETAII1 =      0 
   LBETAII2 =      0 
   NBETAII2 =      0 
   PBETAII2 =      0 
   LESATII =      0 
   NESATII =      0 
   PESATII =      0 
   LLII =      0 
   NLII =      0 
   PLII =      0 
   LSII0 =      0 
   NSII0 =      0 
   PSII0 =      0 
   LSII1 =      0 
   NSII1 =      0 
   PSII1 =      0 
   LSII2 =      0 
   NSII2 =      0 
   PSII2 =      0 
   LSIID =      0 
   NSIID =      0 
   PSIID =      0 
   LCFS =      0 
   NCFS =      0 
   PCFS =      0 
   LCFD =      0 
   NCFD =      0 
   PCFD =      0 
   LCOVS =      0 
   NCOVS =      0 
   PCOVS =      0 
   LCOVD =      0 
   NCOVD =      0 
   PCOVD =      0 
   LCGSL =      0 
   NCGSL =      0 
   PCGSL =      0 
   LCGDL =      0 
   NCGDL =      0 
   PCGDL =      0 
   LCKAPPAS =      0 
   NCKAPPAS =      0 
   PCKAPPAS =      0 
   LCKAPPAD =      0 
   NCKAPPAD =      0 
   PCKAPPAD =      0 
   LCGBL =      0 
   NCGBL =      0 
   PCGBL =      0 
   LCKAPPAB =      0 
   NCKAPPAB =      0 
   PCKAPPAB =      0 
   LNTGEN =      0 
   NNTGEN =      0 
   PNTGEN =      0 
   LAIGEN =      0 
   NAIGEN =      0 
   PAIGEN =      0 
   LBIGEN =      0 
   NBIGEN =      0 
   PBIGEN =      0 
   LXRCRG1 =      0 
   NXRCRG1 =      0 
   PXRCRG1 =      0 
   LXRCRG2 =      0 
   NXRCRG2 =      0 
   PXRCRG2 =      0 
   LINTNOI =      0 
   NINTNOI =      0 
   PINTNOI =      0 
   LUTE =      0 
   NUTE =      0 
   PUTE =      0 
   LUTL =      0 
   NUTL =      0 
   PUTL =      0 
   LUA1 =      0 
   NUA1 =      0 
   PUA1 =      0 
   LUD1 =      0 
   NUD1 =      0 
   PUD1 =      0 
   LUCSTE =      0 
   NUCSTE =      0 
   PUCSTE =      0 
   LPTWGT =      0 
   NPTWGT =      0 
   PPTWGT =      0 
   LAT =      0 
   NAT =      0 
   PAT =      0 
   LSTTHETASAT =      0 
   NSTTHETASAT =      0 
   PSTTHETASAT =      0 
   LPRT =      0 
   NPRT =      0 
   PPRT =      0 
   LIIT =      0 
   NIIT =      0 
   PIIT =      0 
   LTII =      0 
   NTII =      0 
   PTII =      0 
   LTGIDL =      0 
   NTGIDL =      0 
   PTGIDL =      0 
   LIGT =      0 
   NIGT =      0 
   PIGT =      0 
   L = 1.4e-08 m
   D =  4e-08 m
   TFIN =  8e-09 m
   FPITCH = 2.8e-08 m
   NF = 1 
   NFIN = 1 
   NGCON = 1 
   ASEO =      0 m^2
   ADEO =      0 m^2
   PSEO =      0 m
   PDEO =      0 m
   ASEJ =      0 m^2
   ADEJ =      0 m^2
   PSEJ =      0 m
   PDEJ =      0 m
   CGSP =      0 F
   CGDP =      0 F
   CDSP =      0 F
   NRS =      0 
   NRD =      0 
   LRSD = 1.4e-08 m
   XL =      0 m
   DELVTRAND =      0 
   U0MULT =      1 
   IDS0MULT =      1 
   Lmin =  1e-08 m
   Lmax =  3e-08 m
   NFINmin = 0 
   NFINmax = 1 
   LVSAT1 =      0 
   NVSAT1 =      0 
   PVSAT1 =      0 
   LETAMOB =      0 
   NETAMOB =      0 
   PETAMOB =      0 
   LPCLMG =      0 
   NPCLMG =      0 
   PPCLMG =      0 
   LVASAT =      0 
   NVASAT =      0 
   PVASAT =      0 
   LAIGBACC =      0 
   NAIGBACC =      0 
   PAIGBACC =      0 
   LBIGBACC =      0 
   NBIGBACC =      0 
   PBIGBACC =      0 
   LCIGBACC =      0 
   NCIGBACC =      0 
   PCIGBACC =      0 
   LNIGBACC =      0 
   NNIGBACC =      0 
   PNIGBACC =      0 
  **info** (ptm10lstp.sp:15) DC voltage reset to initial transient source value              in source        0:vin_0               new dc=  0.7500D+00
  
      
 **info** set option symb=1 internally to help for convergence.
 *****************************************************************
 ******  option summary
 ******
 runlvl  = 3         bypass  = 2         
  Opening plot unit= 15
 file=ptm10lstp.pa0                                                            

1****** HSPICE -- F-2011.09-SP2 64-BIT (Feb 27 2012) linux ******               
 ******  
 $ netlist of inverter

  ******  operating point information tnom=  25.000 temp=  25.000 *****
 ***** operating point status is voltage   simulation time is   0.000e+00
     node    =voltage       node    =voltage       node    =voltage

 + 0:inb_0   = 7.500e-01  0:outb_00 = 3.281e-06  0:outb_01 = 3.281e-06
 + 0:outb_02 = 3.281e-06  0:outb_03 = 3.281e-06  0:outin_00= 3.281e-06
 + 0:outin_10= 7.500e-01  0:vdd     = 7.500e-01

 ******  
 $ netlist of inverter

  ******  transient analysis tnom=  25.000 temp=  25.000 *****
 model_uut_peak_power00= 2.8739e-05    at= 3.6442e-12
             from= 0.0000e+00    to= 2.0000e-09
 model_uut_avg_power00= 1.5682e-07  from= 0.0000e+00     to= 2.0000e-09
 uut_peak_power= 2.8739e-05    at= 3.6442e-12
             from= 0.0000e+00    to= 2.0000e-09
 uut_avg_power= 1.5682e-07  from= 0.0000e+00     to= 2.0000e-09
 source_peak_power= 4.0073e-05    at= 1.0021e-09
             from= 0.0000e+00    to= 2.0000e-09
 source_avg_power= 2.7382e-07  from= 0.0000e+00     to= 2.0000e-09
 trf_delay_001= 4.8197e-12  targ= 6.7268e-12   trig= 1.9071e-12
 tfr_delay_001= 5.1207e-12  targ= 1.0084e-09   trig= 1.0033e-09
x

        time    voltage      voltage    
                 outin_00     outin_10  
  0.0000e+00    3.281e-06    7.500e-01  
  1.0000e-12    7.443e-02    7.556e-01  
  2.0000e-12    4.022e-01    7.768e-01  
  3.0000e-12    6.348e-01    7.433e-01  
  4.0000e-12    7.231e-01    6.551e-01  
  5.0000e-12    7.311e-01    5.459e-01  
  6.0000e-12    7.320e-01    4.375e-01  
  7.0000e-12    7.356e-01    3.515e-01  
  8.0000e-12    7.415e-01    3.068e-01  
  9.0000e-12    7.444e-01    2.738e-01  
  1.0000e-11    7.454e-01    2.444e-01  
  1.1000e-11    7.444e-01    2.111e-01  
  1.2000e-11    7.402e-01    1.472e-01  
  1.3000e-11    7.379e-01    8.564e-02  
  1.4000e-11    7.413e-01    4.055e-02  
  1.5000e-11    7.460e-01    2.408e-02  
  1.6000e-11    7.476e-01    1.306e-02  
  1.7000e-11    7.485e-01    4.826e-03  
  1.8000e-11    7.495e-01    3.615e-03  
  1.9000e-11    7.500e-01    2.259e-03  
  2.0000e-11    7.497e-01    7.108e-04  
  2.1000e-11    7.496e-01   -5.100e-04  
  2.2000e-11    7.499e-01   -1.880e-05  
  2.3000e-11    7.501e-01    4.724e-04  
  2.4000e-11    7.503e-01    7.554e-04  
  2.5000e-11    7.501e-01    3.219e-04  
  2.6000e-11    7.499e-01   -1.116e-04  
  2.7000e-11    7.498e-01   -5.451e-04  
  2.8000e-11    7.497e-01   -6.364e-04  
  2.9000e-11    7.499e-01   -3.411e-04  
  3.0000e-11    7.500e-01   -4.580e-05  
  3.1000e-11    7.501e-01    2.495e-04  
  3.2000e-11    7.502e-01    5.448e-04  
  3.3000e-11    7.503e-01    6.702e-04  
  3.4000e-11    7.502e-01    4.584e-04  
  3.5000e-11    7.501e-01    2.466e-04  
  3.6000e-11    7.500e-01    3.477e-05  
  3.7000e-11    7.499e-01   -1.771e-04  
  3.8000e-11    7.498e-01   -3.889e-04  
  3.9000e-11    7.498e-01   -6.007e-04  
  4.0000e-11    7.497e-01   -6.259e-04  
  4.1000e-11    7.498e-01   -4.655e-04  
  4.2000e-11    7.499e-01   -3.051e-04  
  4.3000e-11    7.499e-01   -1.447e-04  
  4.4000e-11    7.500e-01    1.572e-05  
  4.5000e-11    7.501e-01    1.761e-04  
  4.6000e-11    7.501e-01    3.365e-04  
  4.7000e-11    7.502e-01    4.970e-04  
  4.8000e-11    7.503e-01    6.574e-04  
  4.9000e-11    7.502e-01    5.948e-04  
  5.0000e-11    7.502e-01    4.718e-04  
  5.1000e-11    7.501e-01    3.489e-04  
  5.2000e-11    7.501e-01    2.260e-04  
  5.3000e-11    7.500e-01    1.031e-04  
  5.4000e-11    7.500e-01   -1.986e-05  
  5.5000e-11    7.499e-01   -1.428e-04  
  5.6000e-11    7.499e-01   -2.657e-04  
  5.7000e-11    7.498e-01   -3.886e-04  
  5.8000e-11    7.498e-01   -5.116e-04  
  5.9000e-11    7.497e-01   -6.345e-04  
  6.0000e-11    7.498e-01   -5.980e-04  
  6.1000e-11    7.498e-01   -5.000e-04  
  6.2000e-11    7.498e-01   -4.019e-04  
  6.3000e-11    7.499e-01   -3.038e-04  
  6.4000e-11    7.499e-01   -2.057e-04  
  6.5000e-11    7.500e-01   -1.077e-04  
  6.6000e-11    7.500e-01   -9.601e-06  
  6.7000e-11    7.500e-01    8.847e-05  
  6.8000e-11    7.501e-01    1.865e-04  
  6.9000e-11    7.501e-01    2.846e-04  
  7.0000e-11    7.501e-01    3.827e-04  
  7.1000e-11    7.502e-01    4.808e-04  
  7.2000e-11    7.502e-01    5.788e-04  
  7.3000e-11    7.503e-01    6.504e-04  
  7.4000e-11    7.502e-01    5.703e-04  
  7.5000e-11    7.502e-01    4.902e-04  
  7.6000e-11    7.502e-01    4.101e-04  
  7.7000e-11    7.501e-01    3.300e-04  
  7.8000e-11    7.501e-01    2.498e-04  
  7.9000e-11    7.501e-01    1.697e-04  
  8.0000e-11    7.500e-01    8.962e-05  
  8.1000e-11    7.500e-01    9.509e-06  
  8.2000e-11    7.500e-01   -7.060e-05  
  8.3000e-11    7.499e-01   -1.507e-04  
  8.4000e-11    7.499e-01   -2.308e-04  
  8.5000e-11    7.499e-01   -3.109e-04  
  8.6000e-11    7.498e-01   -3.911e-04  
  8.7000e-11    7.498e-01   -4.712e-04  
  8.8000e-11    7.498e-01   -5.513e-04  
  8.9000e-11    7.497e-01   -6.314e-04  
  9.0000e-11    7.498e-01   -5.899e-04  
  9.1000e-11    7.498e-01   -5.230e-04  
  9.2000e-11    7.498e-01   -4.560e-04  
  9.3000e-11    7.498e-01   -3.891e-04  
  9.4000e-11    7.499e-01   -3.221e-04  
  9.5000e-11    7.499e-01   -2.551e-04  
  9.6000e-11    7.499e-01   -1.882e-04  
  9.7000e-11    7.499e-01   -1.212e-04  
  9.8000e-11    7.500e-01   -5.424e-05  
  9.9000e-11    7.500e-01    1.273e-05  
  1.0000e-10    7.500e-01    7.969e-05  
  1.0100e-10    7.501e-01    1.467e-04  
  1.0200e-10    7.501e-01    2.136e-04  
  1.0300e-10    7.501e-01    2.806e-04  
  1.0400e-10    7.501e-01    3.475e-04  
  1.0500e-10    7.502e-01    4.145e-04  
  1.0600e-10    7.502e-01    4.815e-04  
  1.0700e-10    7.502e-01    5.484e-04  
  1.0800e-10    7.502e-01    6.154e-04  
  1.0900e-10    7.502e-01    6.093e-04  
  1.1000e-10    7.502e-01    5.520e-04  
  1.1100e-10    7.502e-01    4.947e-04  
  1.1200e-10    7.502e-01    4.374e-04  
  1.1300e-10    7.501e-01    3.802e-04  
  1.1400e-10    7.501e-01    3.229e-04  
  1.1500e-10    7.501e-01    2.656e-04  
  1.1600e-10    7.501e-01    2.083e-04  
  1.1700e-10    7.501e-01    1.510e-04  
  1.1800e-10    7.500e-01    9.369e-05  
  1.1900e-10    7.500e-01    3.640e-05  
  1.2000e-10    7.500e-01   -2.089e-05  
  1.2100e-10    7.500e-01   -7.818e-05  
  1.2200e-10    7.499e-01   -1.355e-04  
  1.2300e-10    7.499e-01   -1.928e-04  
  1.2400e-10    7.499e-01   -2.501e-04  
  1.2500e-10    7.499e-01   -3.074e-04  
  1.2600e-10    7.499e-01   -3.646e-04  
  1.2700e-10    7.498e-01   -4.219e-04  
  1.2800e-10    7.498e-01   -4.792e-04  
  1.2900e-10    7.498e-01   -5.365e-04  
  1.3000e-10    7.498e-01   -5.938e-04  
  1.3100e-10    7.498e-01   -6.097e-04  
  1.3200e-10    7.498e-01   -5.599e-04  
  1.3300e-10    7.498e-01   -5.100e-04  
  1.3400e-10    7.498e-01   -4.601e-04  
  1.3500e-10    7.498e-01   -4.102e-04  
  1.3600e-10    7.499e-01   -3.603e-04  
  1.3700e-10    7.499e-01   -3.104e-04  
  1.3800e-10    7.499e-01   -2.605e-04  
  1.3900e-10    7.499e-01   -2.106e-04  
  1.4000e-10    7.499e-01   -1.608e-04  
  1.4100e-10    7.500e-01   -1.109e-04  
  1.4200e-10    7.500e-01   -6.099e-05  
  1.4300e-10    7.500e-01   -1.110e-05  
  1.4400e-10    7.500e-01    3.879e-05  
  1.4500e-10    7.500e-01    8.867e-05  
  1.4600e-10    7.501e-01    1.386e-04  
  1.4700e-10    7.501e-01    1.884e-04  
  1.4800e-10    7.501e-01    2.383e-04  
  1.4900e-10    7.501e-01    2.882e-04  
  1.5000e-10    7.501e-01    3.381e-04  
  1.5100e-10    7.501e-01    3.880e-04  
  1.5200e-10    7.502e-01    4.379e-04  
  1.5300e-10    7.502e-01    4.878e-04  
  1.5400e-10    7.502e-01    5.377e-04  
  1.5500e-10    7.502e-01    5.875e-04  
  1.5600e-10    7.502e-01    6.215e-04  
  1.5700e-10    7.502e-01    5.773e-04  
  1.5800e-10    7.502e-01    5.331e-04  
  1.5900e-10    7.502e-01    4.889e-04  
  1.6000e-10    7.502e-01    4.447e-04  
  1.6100e-10    7.502e-01    4.005e-04  
  1.6200e-10    7.501e-01    3.563e-04  
  1.6300e-10    7.501e-01    3.121e-04  
  1.6400e-10    7.501e-01    2.679e-04  
  1.6500e-10    7.501e-01    2.237e-04  
  1.6600e-10    7.501e-01    1.795e-04  
  1.6700e-10    7.500e-01    1.353e-04  
  1.6800e-10    7.500e-01    9.106e-05  
  1.6900e-10    7.500e-01    4.686e-05  
  1.7000e-10    7.500e-01    2.665e-06  
  1.7100e-10    7.500e-01   -4.153e-05  
  1.7200e-10    7.500e-01   -8.573e-05  
  1.7300e-10    7.499e-01   -1.299e-04  
  1.7400e-10    7.499e-01   -1.741e-04  
  1.7500e-10    7.499e-01   -2.183e-04  
  1.7600e-10    7.499e-01   -2.625e-04  
  1.7700e-10    7.499e-01   -3.067e-04  
  1.7800e-10    7.499e-01   -3.509e-04  
  1.7900e-10    7.498e-01   -3.951e-04  
  1.8000e-10    7.498e-01   -4.393e-04  
  1.8100e-10    7.498e-01   -4.835e-04  
  1.8200e-10    7.498e-01   -5.277e-04  
  1.8300e-10    7.498e-01   -5.719e-04  
  1.8400e-10    7.498e-01   -6.161e-04  
  1.8500e-10    7.498e-01   -5.775e-04  
  1.8600e-10    7.498e-01   -5.377e-04  
  1.8700e-10    7.498e-01   -4.980e-04  
  1.8800e-10    7.498e-01   -4.582e-04  
  1.8900e-10    7.498e-01   -4.185e-04  
  1.9000e-10    7.498e-01   -3.788e-04  
  1.9100e-10    7.499e-01   -3.390e-04  
  1.9200e-10    7.499e-01   -2.993e-04  
  1.9300e-10    7.499e-01   -2.596e-04  
  1.9400e-10    7.499e-01   -2.198e-04  
  1.9500e-10    7.499e-01   -1.801e-04  
  1.9600e-10    7.499e-01   -1.403e-04  
  1.9700e-10    7.500e-01   -1.006e-04  
  1.9800e-10    7.500e-01   -6.087e-05  
  1.9900e-10    7.500e-01   -2.114e-05  
  2.0000e-10    7.500e-01    1.860e-05  
  2.0100e-10    7.500e-01    5.834e-05  
  2.0200e-10    7.500e-01    9.808e-05  
  2.0300e-10    7.501e-01    1.378e-04  
  2.0400e-10    7.501e-01    1.776e-04  
  2.0500e-10    7.501e-01    2.173e-04  
  2.0600e-10    7.501e-01    2.570e-04  
  2.0700e-10    7.501e-01    2.968e-04  
  2.0800e-10    7.501e-01    3.365e-04  
  2.0900e-10    7.501e-01    3.762e-04  
  2.1000e-10    7.502e-01    4.160e-04  
  2.1100e-10    7.502e-01    4.557e-04  
  2.1200e-10    7.502e-01    4.955e-04  
  2.1300e-10    7.502e-01    5.352e-04  
  2.1400e-10    7.502e-01    5.749e-04  
  2.1500e-10    7.502e-01    6.147e-04  
  2.1600e-10    7.502e-01    5.849e-04  
  2.1700e-10    7.502e-01    5.487e-04  
  2.1800e-10    7.502e-01    5.125e-04  
  2.1900e-10    7.502e-01    4.763e-04  
  2.2000e-10    7.502e-01    4.401e-04  
  2.2100e-10    7.502e-01    4.039e-04  
  2.2200e-10    7.501e-01    3.677e-04  
  2.2300e-10    7.501e-01    3.316e-04  
  2.2400e-10    7.501e-01    2.954e-04  
  2.2500e-10    7.501e-01    2.592e-04  
  2.2600e-10    7.501e-01    2.230e-04  
  2.2700e-10    7.501e-01    1.868e-04  
  2.2800e-10    7.501e-01    1.506e-04  
  2.2900e-10    7.500e-01    1.145e-04  
  2.3000e-10    7.500e-01    7.827e-05  
  2.3100e-10    7.500e-01    4.208e-05  
  2.3200e-10    7.500e-01    5.898e-06  
  2.3300e-10    7.500e-01   -3.029e-05  
  2.3400e-10    7.500e-01   -6.647e-05  
  2.3500e-10    7.500e-01   -1.027e-04  
  2.3600e-10    7.499e-01   -1.388e-04  
  2.3700e-10    7.499e-01   -1.750e-04  
  2.3800e-10    7.499e-01   -2.112e-04  
  2.3900e-10    7.499e-01   -2.474e-04  
  2.4000e-10    7.499e-01   -2.836e-04  
  2.4100e-10    7.499e-01   -3.198e-04  
  2.4200e-10    7.499e-01   -3.560e-04  
  2.4300e-10    7.498e-01   -3.921e-04  
  2.4400e-10    7.498e-01   -4.283e-04  
  2.4500e-10    7.498e-01   -4.645e-04  
  2.4600e-10    7.498e-01   -5.007e-04  
  2.4700e-10    7.498e-01   -5.369e-04  
  2.4800e-10    7.498e-01   -5.731e-04  
  2.4900e-10    7.498e-01   -6.041e-04  
  2.5000e-10    7.498e-01   -5.649e-04  
  2.5100e-10    7.498e-01   -5.257e-04  
  2.5200e-10    7.498e-01   -4.865e-04  
  2.5300e-10    7.498e-01   -4.473e-04  
  2.5400e-10    7.498e-01   -4.082e-04  
  2.5500e-10    7.499e-01   -3.690e-04  
  2.5600e-10    7.499e-01   -3.298e-04  
  2.5700e-10    7.499e-01   -2.906e-04  
  2.5800e-10    7.499e-01   -2.514e-04  
  2.5900e-10    7.499e-01   -2.122e-04  
  2.6000e-10    7.499e-01   -1.730e-04  
  2.6100e-10    7.499e-01   -1.338e-04  
  2.6200e-10    7.500e-01   -9.460e-05  
  2.6300e-10    7.500e-01   -5.540e-05  
  2.6400e-10    7.500e-01   -1.621e-05  
  2.6500e-10    7.500e-01    8.646e-07  
  2.6600e-10    7.500e-01    1.132e-06  
  2.6700e-10    7.500e-01    1.399e-06  
  2.6800e-10    7.500e-01    1.666e-06  
  2.6900e-10    7.500e-01    1.934e-06  
  2.7000e-10    7.500e-01    2.201e-06  
  2.7100e-10    7.500e-01    2.468e-06  
  2.7200e-10    7.500e-01    2.735e-06  
  2.7300e-10    7.500e-01    3.002e-06  
  2.7400e-10    7.500e-01    3.270e-06  
  2.7500e-10    7.500e-01    3.537e-06  
  2.7600e-10    7.500e-01    3.804e-06  
  2.7700e-10    7.500e-01    4.071e-06  
  2.7800e-10    7.500e-01    4.339e-06  
  2.7900e-10    7.500e-01    4.606e-06  
  2.8000e-10    7.500e-01    4.873e-06  
  2.8100e-10    7.500e-01    5.140e-06  
  2.8200e-10    7.500e-01    5.408e-06  
  2.8300e-10    7.500e-01    5.675e-06  
  2.8400e-10    7.500e-01    5.826e-06  
  2.8500e-10    7.500e-01    5.693e-06  
  2.8600e-10    7.500e-01    5.561e-06  
  2.8700e-10    7.500e-01    5.428e-06  
  2.8800e-10    7.500e-01    5.296e-06  
  2.8900e-10    7.500e-01    5.164e-06  
  2.9000e-10    7.500e-01    5.031e-06  
  2.9100e-10    7.500e-01    4.899e-06  
  2.9200e-10    7.500e-01    4.766e-06  
  2.9300e-10    7.500e-01    4.634e-06  
  2.9400e-10    7.500e-01    4.502e-06  
  2.9500e-10    7.500e-01    4.369e-06  
  2.9600e-10    7.500e-01    4.237e-06  
  2.9700e-10    7.500e-01    4.104e-06  
  2.9800e-10    7.500e-01    3.972e-06  
  2.9900e-10    7.500e-01    3.840e-06  
  3.0000e-10    7.500e-01    3.707e-06  
  3.0100e-10    7.500e-01    3.575e-06  
  3.0200e-10    7.500e-01    3.443e-06  
  3.0300e-10    7.500e-01    3.310e-06  
  3.0400e-10    7.500e-01    3.178e-06  
  3.0500e-10    7.500e-01    3.045e-06  
  3.0600e-10    7.500e-01    2.913e-06  
  3.0700e-10    7.500e-01    2.781e-06  
  3.0800e-10    7.500e-01    2.648e-06  
  3.0900e-10    7.500e-01    2.516e-06  
  3.1000e-10    7.500e-01    2.383e-06  
  3.1100e-10    7.500e-01    2.251e-06  
  3.1200e-10    7.500e-01    2.119e-06  
  3.1300e-10    7.500e-01    1.986e-06  
  3.1400e-10    7.500e-01    1.854e-06  
  3.1500e-10    7.500e-01    1.721e-06  
  3.1600e-10    7.500e-01    1.589e-06  
  3.1700e-10    7.500e-01    1.457e-06  
  3.1800e-10    7.500e-01    1.324e-06  
  3.1900e-10    7.500e-01    1.192e-06  
  3.2000e-10    7.500e-01    1.060e-06  
  3.2100e-10    7.500e-01    9.271e-07  
  3.2200e-10    7.500e-01    7.947e-07  
  3.2300e-10    7.500e-01    7.865e-07  
  3.2400e-10    7.500e-01    9.051e-07  
  3.2500e-10    7.500e-01    1.024e-06  
  3.2600e-10    7.500e-01    1.142e-06  
  3.2700e-10    7.500e-01    1.261e-06  
  3.2800e-10    7.500e-01    1.380e-06  
  3.2900e-10    7.500e-01    1.498e-06  
  3.3000e-10    7.500e-01    1.617e-06  
  3.3100e-10    7.500e-01    1.736e-06  
  3.3200e-10    7.500e-01    1.854e-06  
  3.3300e-10    7.500e-01    1.973e-06  
  3.3400e-10    7.500e-01    2.091e-06  
  3.3500e-10    7.500e-01    2.210e-06  
  3.3600e-10    7.500e-01    2.329e-06  
  3.3700e-10    7.500e-01    2.447e-06  
  3.3800e-10    7.500e-01    2.566e-06  
  3.3900e-10    7.500e-01    2.685e-06  
  3.4000e-10    7.500e-01    2.803e-06  
  3.4100e-10    7.500e-01    2.922e-06  
  3.4200e-10    7.500e-01    3.040e-06  
  3.4300e-10    7.500e-01    3.159e-06  
  3.4400e-10    7.500e-01    3.278e-06  
  3.4500e-10    7.500e-01    3.396e-06  
  3.4600e-10    7.500e-01    3.515e-06  
  3.4700e-10    7.500e-01    3.634e-06  
  3.4800e-10    7.500e-01    3.752e-06  
  3.4900e-10    7.500e-01    3.871e-06  
  3.5000e-10    7.500e-01    3.990e-06  
  3.5100e-10    7.500e-01    4.108e-06  
  3.5200e-10    7.500e-01    4.227e-06  
  3.5300e-10    7.500e-01    4.345e-06  
  3.5400e-10    7.500e-01    4.464e-06  
  3.5500e-10    7.500e-01    4.583e-06  
  3.5600e-10    7.500e-01    4.701e-06  
  3.5700e-10    7.500e-01    4.820e-06  
  3.5800e-10    7.500e-01    4.939e-06  
  3.5900e-10    7.500e-01    5.057e-06  
  3.6000e-10    7.500e-01    5.176e-06  
  3.6100e-10    7.500e-01    5.294e-06  
  3.6200e-10    7.500e-01    5.413e-06  
  3.6300e-10    7.500e-01    5.532e-06  
  3.6400e-10    7.500e-01    5.650e-06  
  3.6500e-10    7.500e-01    5.769e-06  
  3.6600e-10    7.500e-01    5.776e-06  
  3.6700e-10    7.500e-01    5.725e-06  
  3.6800e-10    7.500e-01    5.675e-06  
  3.6900e-10    7.500e-01    5.624e-06  
  3.7000e-10    7.500e-01    5.574e-06  
  3.7100e-10    7.500e-01    5.523e-06  
  3.7200e-10    7.500e-01    5.473e-06  
  3.7300e-10    7.500e-01    5.423e-06  
  3.7400e-10    7.500e-01    5.372e-06  
  3.7500e-10    7.500e-01    5.322e-06  
  3.7600e-10    7.500e-01    5.271e-06  
  3.7700e-10    7.500e-01    5.221e-06  
  3.7800e-10    7.500e-01    5.170e-06  
  3.7900e-10    7.500e-01    5.120e-06  
  3.8000e-10    7.500e-01    5.069e-06  
  3.8100e-10    7.500e-01    5.019e-06  
  3.8200e-10    7.500e-01    4.968e-06  
  3.8300e-10    7.500e-01    4.918e-06  
  3.8400e-10    7.500e-01    4.868e-06  
  3.8500e-10    7.500e-01    4.817e-06  
  3.8600e-10    7.500e-01    4.767e-06  
  3.8700e-10    7.500e-01    4.716e-06  
  3.8800e-10    7.500e-01    4.666e-06  
  3.8900e-10    7.500e-01    4.615e-06  
  3.9000e-10    7.500e-01    4.565e-06  
  3.9100e-10    7.500e-01    4.514e-06  
  3.9200e-10    7.500e-01    4.464e-06  
  3.9300e-10    7.500e-01    4.413e-06  
  3.9400e-10    7.500e-01    4.363e-06  
  3.9500e-10    7.500e-01    4.313e-06  
  3.9600e-10    7.500e-01    4.262e-06  
  3.9700e-10    7.500e-01    4.212e-06  
  3.9800e-10    7.500e-01    4.161e-06  
  3.9900e-10    7.500e-01    4.111e-06  
  4.0000e-10    7.500e-01    4.060e-06  
  4.0100e-10    7.500e-01    4.010e-06  
  4.0200e-10    7.500e-01    3.959e-06  
  4.0300e-10    7.500e-01    3.909e-06  
  4.0400e-10    7.500e-01    3.858e-06  
  4.0500e-10    7.500e-01    3.808e-06  
  4.0600e-10    7.500e-01    3.758e-06  
  4.0700e-10    7.500e-01    3.707e-06  
  4.0800e-10    7.500e-01    3.657e-06  
  4.0900e-10    7.500e-01    3.606e-06  
  4.1000e-10    7.500e-01    3.556e-06  
  4.1100e-10    7.500e-01    3.505e-06  
  4.1200e-10    7.500e-01    3.455e-06  
  4.1300e-10    7.500e-01    3.404e-06  
  4.1400e-10    7.500e-01    3.354e-06  
  4.1500e-10    7.500e-01    3.303e-06  
  4.1600e-10    7.500e-01    3.253e-06  
  4.1700e-10    7.500e-01    3.203e-06  
  4.1800e-10    7.500e-01    3.152e-06  
  4.1900e-10    7.500e-01    3.102e-06  
  4.2000e-10    7.500e-01    3.051e-06  
  4.2100e-10    7.500e-01    3.001e-06  
  4.2200e-10    7.500e-01    2.950e-06  
  4.2300e-10    7.500e-01    2.900e-06  
  4.2400e-10    7.500e-01    2.849e-06  
  4.2500e-10    7.500e-01    2.799e-06  
  4.2600e-10    7.500e-01    2.748e-06  
  4.2700e-10    7.500e-01    2.698e-06  
  4.2800e-10    7.500e-01    2.648e-06  
  4.2900e-10    7.500e-01    2.597e-06  
  4.3000e-10    7.500e-01    2.547e-06  
  4.3100e-10    7.500e-01    2.496e-06  
  4.3200e-10    7.500e-01    2.446e-06  
  4.3300e-10    7.500e-01    2.395e-06  
  4.3400e-10    7.500e-01    2.345e-06  
  4.3500e-10    7.500e-01    2.294e-06  
  4.3600e-10    7.500e-01    2.244e-06  
  4.3700e-10    7.500e-01    2.193e-06  
  4.3800e-10    7.500e-01    2.143e-06  
  4.3900e-10    7.500e-01    2.093e-06  
  4.4000e-10    7.500e-01    2.042e-06  
  4.4100e-10    7.500e-01    1.992e-06  
  4.4200e-10    7.500e-01    1.941e-06  
  4.4300e-10    7.500e-01    1.891e-06  
  4.4400e-10    7.500e-01    1.840e-06  
  4.4500e-10    7.500e-01    1.790e-06  
  4.4600e-10    7.500e-01    1.739e-06  
  4.4700e-10    7.500e-01    1.689e-06  
  4.4800e-10    7.500e-01    1.638e-06  
  4.4900e-10    7.500e-01    1.588e-06  
  4.5000e-10    7.500e-01    1.538e-06  
  4.5100e-10    7.500e-01    1.487e-06  
  4.5200e-10    7.500e-01    1.437e-06  
  4.5300e-10    7.500e-01    1.386e-06  
  4.5400e-10    7.500e-01    1.336e-06  
  4.5500e-10    7.500e-01    1.285e-06  
  4.5600e-10    7.500e-01    1.235e-06  
  4.5700e-10    7.500e-01    1.184e-06  
  4.5800e-10    7.500e-01    1.134e-06  
  4.5900e-10    7.500e-01    1.083e-06  
  4.6000e-10    7.500e-01    1.033e-06  
  4.6100e-10    7.500e-01    9.825e-07  
  4.6200e-10    7.500e-01    9.321e-07  
  4.6300e-10    7.500e-01    8.816e-07  
  4.6400e-10    7.500e-01    8.311e-07  
  4.6500e-10    7.500e-01    7.807e-07  
  4.6600e-10    7.500e-01    7.969e-07  
  4.6700e-10    7.500e-01    8.471e-07  
  4.6800e-10    7.500e-01    8.974e-07  
  4.6900e-10    7.500e-01    9.476e-07  
[...]
  1.5610e-09    3.012e-06    7.500e-01  
  1.5620e-09    3.022e-06    7.500e-01  
  1.5630e-09    3.033e-06    7.500e-01  
  1.5640e-09    3.043e-06    7.500e-01  
  1.5650e-09    3.054e-06    7.500e-01  
  1.5660e-09    3.065e-06    7.500e-01  
  1.5670e-09    3.075e-06    7.500e-01  
  1.5680e-09    3.086e-06    7.500e-01  
  1.5690e-09    3.096e-06    7.500e-01  
  1.5700e-09    3.107e-06    7.500e-01  
  1.5710e-09    3.118e-06    7.500e-01  
  1.5720e-09    3.128e-06    7.500e-01  
  1.5730e-09    3.139e-06    7.500e-01  
  1.5740e-09    3.149e-06    7.500e-01  
  1.5750e-09    3.160e-06    7.500e-01  
  1.5760e-09    3.171e-06    7.500e-01  
  1.5770e-09    3.181e-06    7.500e-01  
  1.5780e-09    3.192e-06    7.500e-01  
  1.5790e-09    3.202e-06    7.500e-01  
  1.5800e-09    3.213e-06    7.500e-01  
  1.5810e-09    3.223e-06    7.500e-01  
  1.5820e-09    3.234e-06    7.500e-01  
  1.5830e-09    3.245e-06    7.500e-01  
  1.5840e-09    3.255e-06    7.500e-01  
  1.5850e-09    3.266e-06    7.500e-01  
  1.5860e-09    3.276e-06    7.500e-01  
  1.5870e-09    3.287e-06    7.500e-01  
  1.5880e-09    3.298e-06    7.500e-01  
  1.5890e-09    3.308e-06    7.500e-01  
  1.5900e-09    3.319e-06    7.500e-01  
  1.5910e-09    3.329e-06    7.500e-01  
  1.5920e-09    3.340e-06    7.500e-01  
  1.5930e-09    3.351e-06    7.500e-01  
  1.5940e-09    3.361e-06    7.500e-01  
  1.5950e-09    3.372e-06    7.500e-01  
  1.5960e-09    3.382e-06    7.500e-01  
  1.5970e-09    3.393e-06    7.500e-01  
  1.5980e-09    3.403e-06    7.500e-01  
  1.5990e-09    3.414e-06    7.500e-01  
  1.6000e-09    3.425e-06    7.500e-01  
  1.6010e-09    3.435e-06    7.500e-01  
  1.6020e-09    3.446e-06    7.500e-01  
  1.6030e-09    3.456e-06    7.500e-01  
  1.6040e-09    3.467e-06    7.500e-01  
  1.6050e-09    3.478e-06    7.500e-01  
  1.6060e-09    3.488e-06    7.500e-01  
  1.6070e-09    3.499e-06    7.500e-01  
  1.6080e-09    3.509e-06    7.500e-01  
  1.6090e-09    3.520e-06    7.500e-01  
  1.6100e-09    3.531e-06    7.500e-01  
  1.6110e-09    3.541e-06    7.500e-01  
  1.6120e-09    3.552e-06    7.500e-01  
  1.6130e-09    3.562e-06    7.500e-01  
  1.6140e-09    3.559e-06    7.500e-01  
  1.6150e-09    3.547e-06    7.500e-01  
  1.6160e-09    3.536e-06    7.500e-01  
  1.6170e-09    3.524e-06    7.500e-01  
  1.6180e-09    3.513e-06    7.500e-01  
  1.6190e-09    3.501e-06    7.500e-01  
  1.6200e-09    3.490e-06    7.500e-01  
  1.6210e-09    3.478e-06    7.500e-01  
  1.6220e-09    3.467e-06    7.500e-01  
  1.6230e-09    3.455e-06    7.500e-01  
  1.6240e-09    3.444e-06    7.500e-01  
  1.6250e-09    3.432e-06    7.500e-01  
  1.6260e-09    3.421e-06    7.500e-01  
  1.6270e-09    3.409e-06    7.500e-01  
  1.6280e-09    3.398e-06    7.500e-01  
  1.6290e-09    3.386e-06    7.500e-01  
  1.6300e-09    3.375e-06    7.500e-01  
  1.6310e-09    3.363e-06    7.500e-01  
  1.6320e-09    3.352e-06    7.500e-01  
  1.6330e-09    3.340e-06    7.500e-01  
  1.6340e-09    3.329e-06    7.500e-01  
  1.6350e-09    3.317e-06    7.500e-01  
  1.6360e-09    3.306e-06    7.500e-01  
  1.6370e-09    3.294e-06    7.500e-01  
  1.6380e-09    3.283e-06    7.500e-01  
  1.6390e-09    3.271e-06    7.500e-01  
  1.6400e-09    3.260e-06    7.500e-01  
  1.6410e-09    3.248e-06    7.500e-01  
  1.6420e-09    3.237e-06    7.500e-01  
  1.6430e-09    3.225e-06    7.500e-01  
  1.6440e-09    3.214e-06    7.500e-01  
  1.6450e-09    3.202e-06    7.500e-01  
  1.6460e-09    3.191e-06    7.500e-01  
  1.6470e-09    3.179e-06    7.500e-01  
  1.6480e-09    3.168e-06    7.500e-01  
  1.6490e-09    3.157e-06    7.500e-01  
  1.6500e-09    3.145e-06    7.500e-01  
  1.6510e-09    3.134e-06    7.500e-01  
  1.6520e-09    3.122e-06    7.500e-01  
  1.6530e-09    3.111e-06    7.500e-01  
  1.6540e-09    3.099e-06    7.500e-01  
  1.6550e-09    3.088e-06    7.500e-01  
  1.6560e-09    3.076e-06    7.500e-01  
  1.6570e-09    3.065e-06    7.500e-01  
  1.6580e-09    3.053e-06    7.500e-01  
  1.6590e-09    3.042e-06    7.500e-01  
  1.6600e-09    3.030e-06    7.500e-01  
  1.6610e-09    3.019e-06    7.500e-01  
  1.6620e-09    3.007e-06    7.500e-01  
  1.6630e-09    2.996e-06    7.500e-01  
  1.6640e-09    2.984e-06    7.500e-01  
  1.6650e-09    2.973e-06    7.500e-01  
  1.6660e-09    2.961e-06    7.500e-01  
  1.6670e-09    2.950e-06    7.500e-01  
  1.6680e-09    2.938e-06    7.500e-01  
  1.6690e-09    2.927e-06    7.500e-01  
  1.6700e-09    2.915e-06    7.500e-01  
  1.6710e-09    2.904e-06    7.500e-01  
  1.6720e-09    2.892e-06    7.500e-01  
  1.6730e-09    2.881e-06    7.500e-01  
  1.6740e-09    2.869e-06    7.500e-01  
  1.6750e-09    2.858e-06    7.500e-01  
  1.6760e-09    2.846e-06    7.500e-01  
  1.6770e-09    2.835e-06    7.500e-01  
  1.6780e-09    2.823e-06    7.500e-01  
  1.6790e-09    2.812e-06    7.500e-01  
  1.6800e-09    2.800e-06    7.500e-01  
  1.6810e-09    2.789e-06    7.500e-01  
  1.6820e-09    2.777e-06    7.500e-01  
  1.6830e-09    2.783e-06    7.500e-01  
  1.6840e-09    2.791e-06    7.500e-01  
  1.6850e-09    2.798e-06    7.500e-01  
  1.6860e-09    2.806e-06    7.500e-01  
  1.6870e-09    2.814e-06    7.500e-01  
  1.6880e-09    2.822e-06    7.500e-01  
  1.6890e-09    2.830e-06    7.500e-01  
  1.6900e-09    2.838e-06    7.500e-01  
  1.6910e-09    2.846e-06    7.500e-01  
  1.6920e-09    2.854e-06    7.500e-01  
  1.6930e-09    2.861e-06    7.500e-01  
  1.6940e-09    2.869e-06    7.500e-01  
  1.6950e-09    2.877e-06    7.500e-01  
  1.6960e-09    2.885e-06    7.500e-01  
  1.6970e-09    2.893e-06    7.500e-01  
  1.6980e-09    2.901e-06    7.500e-01  
  1.6990e-09    2.909e-06    7.500e-01  
  1.7000e-09    2.917e-06    7.500e-01  
  1.7010e-09    2.924e-06    7.500e-01  
  1.7020e-09    2.932e-06    7.500e-01  
  1.7030e-09    2.940e-06    7.500e-01  
  1.7040e-09    2.948e-06    7.500e-01  
  1.7050e-09    2.956e-06    7.500e-01  
  1.7060e-09    2.964e-06    7.500e-01  
  1.7070e-09    2.972e-06    7.500e-01  
  1.7080e-09    2.980e-06    7.500e-01  
  1.7090e-09    2.987e-06    7.500e-01  
  1.7100e-09    2.995e-06    7.500e-01  
  1.7110e-09    3.003e-06    7.500e-01  
  1.7120e-09    3.011e-06    7.500e-01  
  1.7130e-09    3.019e-06    7.500e-01  
  1.7140e-09    3.027e-06    7.500e-01  
  1.7150e-09    3.035e-06    7.500e-01  
  1.7160e-09    3.043e-06    7.500e-01  
  1.7170e-09    3.050e-06    7.500e-01  
  1.7180e-09    3.058e-06    7.500e-01  
  1.7190e-09    3.066e-06    7.500e-01  
  1.7200e-09    3.074e-06    7.500e-01  
  1.7210e-09    3.082e-06    7.500e-01  
  1.7220e-09    3.090e-06    7.500e-01  
  1.7230e-09    3.098e-06    7.500e-01  
  1.7240e-09    3.106e-06    7.500e-01  
  1.7250e-09    3.113e-06    7.500e-01  
  1.7260e-09    3.121e-06    7.500e-01  
  1.7270e-09    3.129e-06    7.500e-01  
  1.7280e-09    3.137e-06    7.500e-01  
  1.7290e-09    3.145e-06    7.500e-01  
  1.7300e-09    3.153e-06    7.500e-01  
  1.7310e-09    3.161e-06    7.500e-01  
  1.7320e-09    3.169e-06    7.500e-01  
  1.7330e-09    3.176e-06    7.500e-01  
  1.7340e-09    3.184e-06    7.500e-01  
  1.7350e-09    3.192e-06    7.500e-01  
  1.7360e-09    3.200e-06    7.500e-01  
  1.7370e-09    3.208e-06    7.500e-01  
  1.7380e-09    3.216e-06    7.500e-01  
  1.7390e-09    3.224e-06    7.500e-01  
  1.7400e-09    3.232e-06    7.500e-01  
  1.7410e-09    3.239e-06    7.500e-01  
  1.7420e-09    3.247e-06    7.500e-01  
  1.7430e-09    3.255e-06    7.500e-01  
  1.7440e-09    3.263e-06    7.500e-01  
  1.7450e-09    3.271e-06    7.500e-01  
  1.7460e-09    3.279e-06    7.500e-01  
  1.7470e-09    3.287e-06    7.500e-01  
  1.7480e-09    3.295e-06    7.500e-01  
  1.7490e-09    3.302e-06    7.500e-01  
  1.7500e-09    3.310e-06    7.500e-01  
  1.7510e-09    3.318e-06    7.500e-01  
  1.7520e-09    3.326e-06    7.500e-01  
  1.7530e-09    3.334e-06    7.500e-01  
  1.7540e-09    3.342e-06    7.500e-01  
  1.7550e-09    3.350e-06    7.500e-01  
  1.7560e-09    3.358e-06    7.500e-01  
  1.7570e-09    3.365e-06    7.500e-01  
  1.7580e-09    3.373e-06    7.500e-01  
  1.7590e-09    3.381e-06    7.500e-01  
  1.7600e-09    3.389e-06    7.500e-01  
  1.7610e-09    3.397e-06    7.500e-01  
  1.7620e-09    3.405e-06    7.500e-01  
  1.7630e-09    3.413e-06    7.500e-01  
  1.7640e-09    3.421e-06    7.500e-01  
  1.7650e-09    3.428e-06    7.500e-01  
  1.7660e-09    3.436e-06    7.500e-01  
  1.7670e-09    3.444e-06    7.500e-01  
  1.7680e-09    3.452e-06    7.500e-01  
  1.7690e-09    3.460e-06    7.500e-01  
  1.7700e-09    3.468e-06    7.500e-01  
  1.7710e-09    3.476e-06    7.500e-01  
  1.7720e-09    3.484e-06    7.500e-01  
  1.7730e-09    3.491e-06    7.500e-01  
  1.7740e-09    3.499e-06    7.500e-01  
  1.7750e-09    3.507e-06    7.500e-01  
  1.7760e-09    3.515e-06    7.500e-01  
  1.7770e-09    3.523e-06    7.500e-01  
  1.7780e-09    3.531e-06    7.500e-01  
  1.7790e-09    3.539e-06    7.500e-01  
  1.7800e-09    3.547e-06    7.500e-01  
  1.7810e-09    3.554e-06    7.500e-01  
  1.7820e-09    3.562e-06    7.500e-01  
  1.7830e-09    3.556e-06    7.500e-01  
  1.7840e-09    3.549e-06    7.500e-01  
  1.7850e-09    3.541e-06    7.500e-01  
  1.7860e-09    3.533e-06    7.500e-01  
  1.7870e-09    3.525e-06    7.500e-01  
  1.7880e-09    3.517e-06    7.500e-01  
  1.7890e-09    3.509e-06    7.500e-01  
  1.7900e-09    3.501e-06    7.500e-01  
  1.7910e-09    3.494e-06    7.500e-01  
  1.7920e-09    3.486e-06    7.500e-01  
  1.7930e-09    3.478e-06    7.500e-01  
  1.7940e-09    3.470e-06    7.500e-01  
  1.7950e-09    3.462e-06    7.500e-01  
  1.7960e-09    3.454e-06    7.500e-01  
  1.7970e-09    3.446e-06    7.500e-01  
  1.7980e-09    3.439e-06    7.500e-01  
  1.7990e-09    3.431e-06    7.500e-01  
  1.8000e-09    3.423e-06    7.500e-01  
  1.8010e-09    3.415e-06    7.500e-01  
  1.8020e-09    3.407e-06    7.500e-01  
  1.8030e-09    3.399e-06    7.500e-01  
  1.8040e-09    3.392e-06    7.500e-01  
  1.8050e-09    3.384e-06    7.500e-01  
  1.8060e-09    3.376e-06    7.500e-01  
  1.8070e-09    3.368e-06    7.500e-01  
  1.8080e-09    3.360e-06    7.500e-01  
  1.8090e-09    3.352e-06    7.500e-01  
  1.8100e-09    3.344e-06    7.500e-01  
  1.8110e-09    3.337e-06    7.500e-01  
  1.8120e-09    3.329e-06    7.500e-01  
  1.8130e-09    3.321e-06    7.500e-01  
  1.8140e-09    3.313e-06    7.500e-01  
  1.8150e-09    3.305e-06    7.500e-01  
  1.8160e-09    3.297e-06    7.500e-01  
  1.8170e-09    3.289e-06    7.500e-01  
  1.8180e-09    3.282e-06    7.500e-01  
  1.8190e-09    3.274e-06    7.500e-01  
  1.8200e-09    3.266e-06    7.500e-01  
  1.8210e-09    3.258e-06    7.500e-01  
  1.8220e-09    3.250e-06    7.500e-01  
  1.8230e-09    3.242e-06    7.500e-01  
  1.8240e-09    3.235e-06    7.500e-01  
  1.8250e-09    3.227e-06    7.500e-01  
  1.8260e-09    3.219e-06    7.500e-01  
  1.8270e-09    3.211e-06    7.500e-01  
  1.8280e-09    3.203e-06    7.500e-01  
  1.8290e-09    3.195e-06    7.500e-01  
  1.8300e-09    3.187e-06    7.500e-01  
  1.8310e-09    3.180e-06    7.500e-01  
  1.8320e-09    3.172e-06    7.500e-01  
  1.8330e-09    3.164e-06    7.500e-01  
  1.8340e-09    3.156e-06    7.500e-01  
  1.8350e-09    3.148e-06    7.500e-01  
  1.8360e-09    3.140e-06    7.500e-01  
  1.8370e-09    3.132e-06    7.500e-01  
  1.8380e-09    3.125e-06    7.500e-01  
  1.8390e-09    3.117e-06    7.500e-01  
  1.8400e-09    3.109e-06    7.500e-01  
  1.8410e-09    3.101e-06    7.500e-01  
  1.8420e-09    3.093e-06    7.500e-01  
  1.8430e-09    3.085e-06    7.500e-01  
  1.8440e-09    3.077e-06    7.500e-01  
  1.8450e-09    3.070e-06    7.500e-01  
  1.8460e-09    3.062e-06    7.500e-01  
  1.8470e-09    3.054e-06    7.500e-01  
  1.8480e-09    3.046e-06    7.500e-01  
  1.8490e-09    3.038e-06    7.500e-01  
  1.8500e-09    3.030e-06    7.500e-01  
  1.8510e-09    3.023e-06    7.500e-01  
  1.8520e-09    3.015e-06    7.500e-01  
  1.8530e-09    3.007e-06    7.500e-01  
  1.8540e-09    2.999e-06    7.500e-01  
  1.8550e-09    2.991e-06    7.500e-01  
  1.8560e-09    2.983e-06    7.500e-01  
  1.8570e-09    2.975e-06    7.500e-01  
  1.8580e-09    2.968e-06    7.500e-01  
  1.8590e-09    2.960e-06    7.500e-01  
  1.8600e-09    2.952e-06    7.500e-01  
  1.8610e-09    2.944e-06    7.500e-01  
  1.8620e-09    2.936e-06    7.500e-01  
  1.8630e-09    2.928e-06    7.500e-01  
  1.8640e-09    2.920e-06    7.500e-01  
  1.8650e-09    2.913e-06    7.500e-01  
  1.8660e-09    2.905e-06    7.500e-01  
  1.8670e-09    2.897e-06    7.500e-01  
  1.8680e-09    2.889e-06    7.500e-01  
  1.8690e-09    2.881e-06    7.500e-01  
  1.8700e-09    2.873e-06    7.500e-01  
  1.8710e-09    2.865e-06    7.500e-01  
  1.8720e-09    2.858e-06    7.500e-01  
  1.8730e-09    2.850e-06    7.500e-01  
  1.8740e-09    2.842e-06    7.500e-01  
  1.8750e-09    2.834e-06    7.500e-01  
  1.8760e-09    2.826e-06    7.500e-01  
  1.8770e-09    2.818e-06    7.500e-01  
  1.8780e-09    2.811e-06    7.500e-01  
  1.8790e-09    2.803e-06    7.500e-01  
  1.8800e-09    2.795e-06    7.500e-01  
  1.8810e-09    2.787e-06    7.500e-01  
  1.8820e-09    2.779e-06    7.500e-01  
  1.8830e-09    2.785e-06    7.500e-01  
  1.8840e-09    2.793e-06    7.500e-01  
  1.8850e-09    2.801e-06    7.500e-01  
  1.8860e-09    2.808e-06    7.500e-01  
  1.8870e-09    2.816e-06    7.500e-01  
  1.8880e-09    2.824e-06    7.500e-01  
  1.8890e-09    2.832e-06    7.500e-01  
  1.8900e-09    2.840e-06    7.500e-01  
  1.8910e-09    2.848e-06    7.500e-01  
  1.8920e-09    2.855e-06    7.500e-01  
  1.8930e-09    2.863e-06    7.500e-01  
  1.8940e-09    2.871e-06    7.500e-01  
  1.8950e-09    2.879e-06    7.500e-01  
  1.8960e-09    2.887e-06    7.500e-01  
  1.8970e-09    2.895e-06    7.500e-01  
  1.8980e-09    2.902e-06    7.500e-01  
  1.8990e-09    2.910e-06    7.500e-01  
  1.9000e-09    2.918e-06    7.500e-01  
  1.9010e-09    2.926e-06    7.500e-01  
  1.9020e-09    2.934e-06    7.500e-01  
  1.9030e-09    2.942e-06    7.500e-01  
  1.9040e-09    2.949e-06    7.500e-01  
  1.9050e-09    2.957e-06    7.500e-01  
  1.9060e-09    2.965e-06    7.500e-01  
  1.9070e-09    2.973e-06    7.500e-01  
  1.9080e-09    2.981e-06    7.500e-01  
  1.9090e-09    2.989e-06    7.500e-01  
  1.9100e-09    2.996e-06    7.500e-01  
  1.9110e-09    3.004e-06    7.500e-01  
  1.9120e-09    3.012e-06    7.500e-01  
  1.9130e-09    3.020e-06    7.500e-01  
  1.9140e-09    3.028e-06    7.500e-01  
  1.9150e-09    3.035e-06    7.500e-01  
  1.9160e-09    3.043e-06    7.500e-01  
  1.9170e-09    3.051e-06    7.500e-01  
  1.9180e-09    3.059e-06    7.500e-01  
  1.9190e-09    3.067e-06    7.500e-01  
  1.9200e-09    3.075e-06    7.500e-01  
  1.9210e-09    3.082e-06    7.500e-01  
  1.9220e-09    3.090e-06    7.500e-01  
  1.9230e-09    3.098e-06    7.500e-01  
  1.9240e-09    3.106e-06    7.500e-01  
  1.9250e-09    3.114e-06    7.500e-01  
  1.9260e-09    3.122e-06    7.500e-01  
  1.9270e-09    3.129e-06    7.500e-01  
  1.9280e-09    3.137e-06    7.500e-01  
  1.9290e-09    3.145e-06    7.500e-01  
  1.9300e-09    3.153e-06    7.500e-01  
  1.9310e-09    3.161e-06    7.500e-01  
  1.9320e-09    3.169e-06    7.500e-01  
  1.9330e-09    3.176e-06    7.500e-01  
  1.9340e-09    3.184e-06    7.500e-01  
  1.9350e-09    3.192e-06    7.500e-01  
  1.9360e-09    3.200e-06    7.500e-01  
  1.9370e-09    3.208e-06    7.500e-01  
  1.9380e-09    3.216e-06    7.500e-01  
  1.9390e-09    3.223e-06    7.500e-01  
  1.9400e-09    3.231e-06    7.500e-01  
  1.9410e-09    3.239e-06    7.500e-01  
  1.9420e-09    3.247e-06    7.500e-01  
  1.9430e-09    3.255e-06    7.500e-01  
  1.9440e-09    3.263e-06    7.500e-01  
  1.9450e-09    3.270e-06    7.500e-01  
  1.9460e-09    3.278e-06    7.500e-01  
  1.9470e-09    3.286e-06    7.500e-01  
  1.9480e-09    3.294e-06    7.500e-01  
  1.9490e-09    3.302e-06    7.500e-01  
  1.9500e-09    3.310e-06    7.500e-01  
  1.9510e-09    3.317e-06    7.500e-01  
  1.9520e-09    3.325e-06    7.500e-01  
  1.9530e-09    3.333e-06    7.500e-01  
  1.9540e-09    3.341e-06    7.500e-01  
  1.9550e-09    3.349e-06    7.500e-01  
  1.9560e-09    3.356e-06    7.500e-01  
  1.9570e-09    3.364e-06    7.500e-01  
  1.9580e-09    3.372e-06    7.500e-01  
  1.9590e-09    3.380e-06    7.500e-01  
  1.9600e-09    3.388e-06    7.500e-01  
  1.9610e-09    3.396e-06    7.500e-01  
  1.9620e-09    3.403e-06    7.500e-01  
  1.9630e-09    3.411e-06    7.500e-01  
  1.9640e-09    3.419e-06    7.500e-01  
  1.9650e-09    3.427e-06    7.500e-01  
  1.9660e-09    3.435e-06    7.500e-01  
  1.9670e-09    3.443e-06    7.500e-01  
  1.9680e-09    3.450e-06    7.500e-01  
  1.9690e-09    3.458e-06    7.500e-01  
  1.9700e-09    3.466e-06    7.500e-01  
  1.9710e-09    3.474e-06    7.500e-01  
  1.9720e-09    3.482e-06    7.500e-01  
  1.9730e-09    3.490e-06    7.500e-01  
  1.9740e-09    3.497e-06    7.500e-01  
  1.9750e-09    3.505e-06    7.500e-01  
  1.9760e-09    3.513e-06    7.500e-01  
  1.9770e-09    3.521e-06    7.500e-01  
  1.9780e-09    3.529e-06    7.500e-01  
  1.9790e-09    3.537e-06    7.500e-01  
  1.9800e-09    3.544e-06    7.500e-01  
  1.9810e-09    3.552e-06    7.500e-01  
  1.9820e-09    3.560e-06    7.500e-01  
  1.9830e-09    3.523e-06    7.500e-01  
  1.9840e-09    3.480e-06    7.500e-01  
  1.9850e-09    3.436e-06    7.500e-01  
  1.9860e-09    3.393e-06    7.500e-01  
  1.9870e-09    3.350e-06    7.500e-01  
  1.9880e-09    3.306e-06    7.500e-01  
  1.9890e-09    3.263e-06    7.500e-01  
  1.9900e-09    3.219e-06    7.500e-01  
  1.9910e-09    3.176e-06    7.500e-01  
  1.9920e-09    3.133e-06    7.500e-01  
  1.9930e-09    3.089e-06    7.500e-01  
  1.9940e-09    3.046e-06    7.500e-01  
  1.9950e-09    3.002e-06    7.500e-01  
  1.9960e-09    2.959e-06    7.500e-01  
  1.9970e-09    2.916e-06    7.500e-01  
  1.9980e-09    2.872e-06    7.500e-01  
  1.9990e-09    2.829e-06    7.500e-01  
  2.0000e-09    2.785e-06    7.500e-01  
y

          ***** job concluded
1****** HSPICE -- F-2011.09-SP2 64-BIT (Feb 27 2012) linux ******               
 ******  
 $ netlist of inverter

  ******  job statistics summary tnom=  25.000 temp=  25.000 *****
  
  
 ******  Machine Information  ******
 CPU:
 model name	: Intel(R) Xeon(R) CPU E5-2650 v4 @ 2.20GHz
 cpu MHz	: 2564.117
  
 OS:
 Linux version 3.10.0-693.17.1.el7.x86_64 (mockbuild@x86-041.build.eng.bos.redha
 t.com) (gcc version 4.8.5 20150623 (Red Hat 4.8.5-16) (GCC) ) #1 SMP Sun Jan 14
  10:36:03 EST 2018


  ******  HSPICE Threads Information  ******

  Command Line Threads Count :     1
  Available CPU Count        :    24
  Actual Threads Count       :     1


  ******  Circuit Statistics  ******
  # nodes       =      33 # elements   =      14
  # resistors   =       0 # capacitors =       0 # inductors   =       0
  # mutual_inds =       0 # vccs       =       0 # vcvs        =       0
  # cccs        =       0 # ccvs       =       0 # volt_srcs   =       2
  # curr_srcs   =       0 # diodes     =       0 # bjts        =       0
  # jfets       =       0 # mosfets    =      12 # U elements  =       0
  # T elements  =       0 # W elements =       0 # B elements  =       0
  # S elements  =       0 # P elements =       0 # va device   =       0
  # vector_srcs =       0


  ******  Runtime Statistics (seconds)  ******

  analysis           time    # points   tot. iter  conv.iter
  op point           0.00           1           4
  transient          0.03        2001         328          96 rev=         2
  readin             0.00
  errchk             0.01
  setup              0.00
  output             0.00


           peak memory used        135.46 megabytes
           total cpu time            0.04 seconds
           total elapsed time        0.30 seconds
           job started at     18:03:07 09/17/2020
           job ended   at     18:03:07 09/17/2020


 lic: Release hspice token(s) 
