$DATA1 SOURCE='HSPICE' VERSION='F-2011.09-SP2 64-BIT'
.TITLE '$ netlist of inverter'
 model_uut_peak_power00 model_uut_avg_power00 uut_peak_power    
 uut_avg_power    source_peak_power source_avg_power trf_delay         
 tfr_delay        temper           alter#            
  4.517e-05        1.834e-07        4.517e-05        1.834e-07        
  7.885e-04        5.629e-06        6.306e-12        6.263e-12        
  2.500e+01       1                 
