$DATA1 SOURCE='HSPICE' VERSION='F-2011.09-SP2 64-BIT'
.TITLE '$ netlist of inverter'
 model_uut_peak_power00 model_uut_avg_power00 uut_peak_power    
 uut_avg_power    source_peak_power source_avg_power trf_delay_001     
 tfr_delay_001    temper           alter#            
  5.996e-05        2.321e-07        5.996e-05        2.321e-07        
  9.243e-05        5.262e-07        3.220e-12        3.639e-12        
  2.500e+01       1                 
