$DATA1 SOURCE='HSPICE' VERSION='F-2011.09-SP2 64-BIT'
.TITLE '$ netlist of inverter'
 model_uut_peak_power00 model_uut_avg_power012 uut_peak_power    
 uut_avg_power    source_peak_power source_avg_power trf_delay         
 tfr_delay        temper           alter#            
  3.666e-05        4.722e-07        7.335e-05        3.570e-07        
  1.514e-03        1.622e-05        4.469e-12        4.507e-12        
  2.500e+01       1                 
