 ****** HSPICE -- F-2011.09-SP2 64-BIT (Feb 27 2012) linux ******               
  Copyright (C) 2011 Synopsys, Inc. All Rights Reserved.                        
  Unpublished-rights reserved under US copyright laws.
  This program is protected by law and is subject to the
  terms and conditions of the license agreement from Synopsys.
  Use of this program is your acceptance to be bound by the
  license agreement. HSPICE is the trademark of Synopsys, Inc.
  Input File: ptm20hp.sp                                                        
  Command line options: ptm20hp.sp
 lic:  
 lic: FLEXlm: v10.8 
 lic: USER:   iliabautista         HOSTNAME: itn0.rc.usf.edu 
 lic: HOSTID:                      PID:      16925 
 lic: Using FLEXlm license file: 
 lic: 27000@license0.rc.usf.edu 
 lic: Checkout 1 hspice 
 lic: License/Maintenance for hspice will expire on 18-jul-2021/2019.06 
 lic: 1(in_use)/50(total) FLOATING license(s) on SERVER license0.rc.usf.edu 
 lic:   
  **warning** (../modelfiles/hp/20nfet.pm:4) Model nfet device geometries will not be checked against the limits set by lmin, lmax, nfinmin and nfinmax. To enable this check, add a period(.) to the model name(i.e. enable model selector).
1****** HSPICE -- F-2011.09-SP2 64-BIT (Feb 27 2012) linux ******               
 ******  
 $ netlist of inverter

  ******  circuit name directory
 circuit number to circuit name directory
   number circuitname                     definition         multiplier
        0 main circuit
        1 xinput_0.                       inverter           1.00 
        2 xinput_1.                       inverter           1.00 
        3 xmodel_uut_grid.                model_uut_grid     1.00 
        4 xoutput_00.                     inverter           1.00 
        5 xoutput_10.                     inverter           1.00 
        6 xinput_0.xpfet.                 pfet               1.00 
        7 xinput_0.xnfet.                 nfet               1.00 
        8 xinput_1.xpfet.                 pfet               1.00 
        9 xinput_1.xnfet.                 nfet               1.00 
       10 xmodel_uut_grid.xinverter00.    inverter           1.00 
       11 xmodel_uut_grid.xinverter10.    inverter           1.00 
       12 xmodel_uut_grid.xinverter01.    inverter           1.00 
       13 xmodel_uut_grid.xinverter11.    inverter           1.00 
       14 xoutput_00.xpfet.               pfet               1.00 
       15 xoutput_00.xnfet.               nfet               1.00 
       16 xoutput_10.xpfet.               pfet               1.00 
       17 xoutput_10.xnfet.               nfet               1.00 
       18 xmodel_uut_grid.xinverter00.xpfet.
                                            pfet               1.00 
       19 xmodel_uut_grid.xinverter00.xnfet.
                                            nfet               1.00 
       20 xmodel_uut_grid.xinverter10.xpfet.
                                            pfet               1.00 
       21 xmodel_uut_grid.xinverter10.xnfet.
                                            nfet               1.00 
       22 xmodel_uut_grid.xinverter01.xpfet.
                                            pfet               1.00 
       23 xmodel_uut_grid.xinverter01.xnfet.
                                            nfet               1.00 
       24 xmodel_uut_grid.xinverter11.xpfet.
                                            pfet               1.00 
       25 xmodel_uut_grid.xinverter11.xnfet.
                                            nfet               1.00 
1****** HSPICE -- F-2011.09-SP2 64-BIT (Feb 27 2012) linux ******               
 ******  
 $ netlist of inverter

  ******  mos   model parameters tnom=  25.000 temp=  25.000 *****
 Model Name: pfet 
 BSIM-MG BULK Model(Level72)
   VERSION = 105.03  
   DEVTYPE = -1 
   BULKMOD = 1  
   COREMOD = 0 
   GEOMOD = 1 
   RDSMOD = 1 
   IGCMOD = 1 
   IGBMOD = 1 
   GIDLMOD = 0 
   IIMOD = 0 
   NQSMOD = 0 
   SHMOD = 0 
   RGATEMOD = 0 
   RGEOMOD = 1 
   CGEOMOD = 2 
   CAPMOD = 0 
   LINT =  1e-09 m
   LL =      0 m^(LLN+1)
   LLN =      1 
   DLC =      0 m
   DLBIN =      0 
   LLC =      0 m^(LLN+1)
   EOT = 8.4e-10 m
   TOXP = 1.4e-09 m
   EOTBOX = 1.4e-07 m
   HFIN = 2.8e-08 m
   FECH =      1 
   DELTAW =      0 m
   FECHCV =      1 
   DELTAWCV =      0 m
   NBODY =  5e+23 m^-3
   NSD =  3e+26 m^-3
   PHIG =  4.798 eV
   EPSROX =    3.9 
   EPSRSUB =   11.9 
   EASUB =   4.05 eV
   NI0SUB = 1.1e+16 m^-3
   BG0SUB =   1.12 eV
   NC0SUB = 2.86e+25 m^-3
   NGATE =      0 m^-3
   CIT = 1.3e-05 F/m^2
   CDSC = 0.0132 F/m^2
   CDSCD =  0.007 F/m^2
   CDSCDR =  0.007 
   DVT0 =   0.01 
   DVT1 =   0.69 
   PHIN =   0.05 V
   ETA0 =   0.71 
   ETA0R =   0.71 
   DSUB =    0.9 
   K1RSCE =      0 V^1/2
   LPE0 =  5e-09 m
   DVTSHIFT =      0 
   QMFACTOR =      0 
   QMTCENIV =      0 
   QMTCENCV =      0 
   AQMTCEN =      0 
   BQMTCEN = 1.2e-08 
   ETAQM =   0.54 
   QM0 = 0.001143 
   PQM =   0.66 
   QM0ACC =  0.001 
   PQMACC =   0.66 
   VSAT = 8.4e+04 
   AVSAT =      0 
   BVSAT =  1e-07 
   VSAT1 = 8.4e+04 
   AVSAT1 =      0 
   BVSAT1 =  1e-07 
   DELTAVSAT =      1 
   KSATIV =    0.8 
   MEXP =      3 
   AMEXP =      0 
   BMEXP =      1 
   PTWG =      0 
   APTWG =      0 
   BPTWG =  1e-07 
   AT = -0.00156 
   TMEXP =      0 
   PTWGT =  0.004 
   U0 =  0.026 
   ETAMOB =      2 
   UP =      0 
   LPA =      1 
   UA =    0.3 
   AUA =      0 
   BUA =  1e-07 
   EU =    1.8 
   AEU =      0 
   BEU =  1e-07 
   UD =      0 
   AUD =      0 
   BUD =  5e-08 
   UCS =      0 
   UTE =      0 
   UTL = -0.0015 
   UA1 = 0.001032 
   UD1 =      0 
   UCSTE = -0.00478 
   RDSWMIN =      0 
   RDSW =    100 
   ARDSW =      0 
   BRDSW =  1e-07 
   RSWMIN =      0 
   RSW =      0 
   ARSW =      0 
   BRSW =  1e-07 
   RDWMIN =      0 
   RDW =      0 
   ARDW =      0 
   BRDW =  1e-07 
   PRWG =      0 
   WR =      1 
   PRT =  0.001 
   PDIBL1 =    1.3 
   PDIBL2 = 0.0002 
   DROUT =   1.06 
   PVAG =      1 
   PCLM =    0.2 
   APCLM =      0 
   BPCLM =  1e-07 
   PCLMG =      0 
   VASAT =    0.6 
   PCLMCV =  0.013 
   PCLMGCV =      0 
   VASATCV =    0.2 
   RGEXT =      0 ohm
   RGFIN =  0.001 ohm
   RSHS =      0 ohm
   RSHD =      0 ohm
   HEPI =  1e-08 m
   TSILI =  1e-08 m
   RHOC =  5e-12 ohm/m^2
   RHORSD =      1 ohm/m
   RHOEXT =      1 ohm/m
   CRATIO =    0.5 
   DELTAPRSD =      0 m
   SDTERM = 0 
   LSP = 4.8e-09 m
   LDG =  3e-09 m
   EPSRSP =    3.9 
   TGATE =  1e-08 m
   TMASK =      0 m
   ASILIEND =      0 m^2
   ARSDEND =      0 m^2
   PRSDEND =      0 m
   NSDE =  3e+25 m^-3
   RGEOA =      1 
   RGEOB =      0 m^-1
   RGEOC =      0 m^-1
   RGEOD =      0 m^-1
   RGEOE =      0 m^-1
   CGEOA =      1 
   CGEOB =      0 m^-1
   CGEOC =      0 m^-1
   CGEOD =      0 m^-1
   CGEOE =      1 
   AIGBINV = 0.0111 (Fs^2/g)^0.5m^-1
   BIGBINV =   0.03 (Fs^2/g)^0.5m^-1
   CIGBINV =  0.006 V^-1
   EIGBINV =    1.1 V
   NIGBINV =    1.2 
   AIGBACC = 0.0149 
   BIGBACC = 0.000949 
   CIGBACC =  0.075 
   NIGBACC =      3 
   AIGC = 0.0136 (Fs^2/g)^0.5m^-1
   BIGC = 0.00171 (Fs^2/g)^0.5m^-1V^-1
   CIGC =  0.075 V^-1
   NIGC =      1 
   DLCIGS =      0 m
   AIGS = 0.0136 (Fs^2/g)^0.5m^-1
   BIGS = 0.00171 (Fs^2/g)^0.5m^-1V^-1
   CIGS =  0.075 V^-1
   DLCIGD =      0 m
   AIGD = 0.0136 (Fs^2/g)^0.5m^-1
   BIGD = 0.00171 (Fs^2/g)^0.5m^-1V^-1
   CIGD =  0.075 V^-1
   POXEDGE =      1 
   AGIDL = 5.729e-12 ohm^-1
   BGIDL =  3e+08 V/m
   EGIDL =    0.1 V
   AGISL = 5.729e-12 ohm^-1
   BGISL =  3e+08 V/m
   EGISL =    0.1 V
   ALPHA0 =      0 mV^-1
   ALPHA1 =      0 V^-1
   BETA0 =     30 V^-1
   ALPHAII =      0 
   BETAII0 =      0 V^-1
   BETAII1 =      0 
   BETAII2 =    0.1 V
   ESATII =  1e+07 V/m
   LII =  5e-10 V/m
   SII0 =    0.5 V^-1
   SII1 =    0.1 
   SII2 =      0 V
   SIID =      0 V
   EOTACC = 8.4e-10 m
   DELVFBACC =      0 V
   CFS = 2.56e-11 F/m
   CFD = 2.65e-11 F/m
   COVS = 2.5e-11 F/m
   COVD = 2.5e-11 F/m
   CGSO =      0 F/m
   CGDO =      0 F/m
   CGSL =      0 F/m
   CGDL =      0 F/m
   CKAPPAS =    0.6 V
   CKAPPAD =    0.6 V
   CGBO =      0 F/m
   CGBL =      0 F/m
   CKAPPAB =    0.6 V
   CSDESW =      0 F/m
   CJS = 0.0005 F/m^2
   CJD = 0.0005 F/m^2
   CJSWS =  5e-10 F/m
   CJSWD =  5e-10 F/m
   CJSWGS =      0 F/m
   CJSWGD =      0 F/m
   PBS =      1 V
   PBD =      1 V
   PBSWS =      1 V
   PBSWD =      1 V
   PBSWGS =      1 V
   PBSWGD =      1 V
   MJS, =    0.5 
   MJD =    0.5 
   MJSWS =   0.33 
   MJSWD =   0.33 
   MJSWGS =   0.33 
   MJSWGD =   0.33 
   SJS =      0 
   SJD =      0 
   SJSWS =      0 
   SJSWD =      0 
   SJSWGS =      0 
   SJSWGD =      0 
   MJS2 =  0.125 
   MJD2 =  0.125 
   MJSWS2 =   0.33 
   MJSWD2 =   0.33 
   MJSWGS2 =   0.33 
   MJSWGD2 =   0.33 
   JSS = 0.0001 A/m^2
   JSD = 0.0001 A/m^2
   JSWS =      0 A/m
   JSWD =      0 A/m
   JSWGS =      0 A/m
   JSWGD =      0 A/m
   NJS =      1 
   NJD =      1 
   IJTHSFWD =    0.1 A
   IJTHDFWD =    0.1 A
   IJTHSREV =    0.1 A
   IJTHDREV =    0.1 A
   BVS =     10 V
   BVD =     10 V
   XJBVS =      1 
   XJBVD =      1 
   JTSS =      0 A/m^2
   JTSD =      0 A/m^2
   JTSSWS =      0 A/m
   JTSSWD =      0 A/m
   JTSSWGS =      0 A/m
   JTSSWGD =      0 A/m
   JTWEFF =      0 m
   NJTS =     20 
   NJTSD =     20 
   NJTSSW =     20 
   NJTSSWD =     20 
   NJTSSWG =     20 
   NJTSSWGD =     20 
   VTSS =     10 V
   VTSD =     10 V
   VTSSWS =     10 V
   VTSSWD =     10 V
   VTSSWGS =     10 V
   VTSSWGD =     10 V
   LINTIGEN =      0 m
   NTGEN =      1 
   AIGEN =      0 m^-3V^-1
   BIGEN =      0 m^-3V^-3
   XRCRG1 =     12 
   XRCRG2 =      1 
   NSEG = 5 
   EF =      1 
   EM = 4.1e+07 V/m
   NOIA = 6.25e+39 eV^-1s^1-EFm^-3
   NOIB = 3.125e+24 eV^-1s^1-EFm^-1
   NOIC = 8.75e+07 eV^-1s^1-EFm
   NTNOI =      1 
   TNOM =  300.1 K
   TBGASUB = 0.000702 eV/K
   TBGBSUB =   1108 K
   KT1 =      0 V
   KT1L =      0 Vm
   IIT =   -0.5 
   TII =      0 
   TGIDL = -0.0003 K^-1
   IGT =    2.5 
   TCJ =      0 K^-1
   TCJSW =      0 K^-1
   TCJSWG =      0 K^-1
   TPB =      0 K^-1
   TPBSW =      0 K^-1
   TPBSWG =      0 K^-1
   XTIS =      3 
   XTID =      3 
   XTSS =   0.02 
   XTSD =   0.02 
   XTSSWS =   0.02 
   XTSSWD =   0.02 
   XTSSWGS =   0.02 
   XTSSWGD =   0.02 
   TNJTS =      0 
   TNJTSD =      0 
   TNJTSSW =      0 
   TNJTSSWD =      0 
   TNJTSSWG =      0 
   TNJTSSWGD =      0 
   RTH0 =   0.01 ohm
   CTH0 =  1e-05 F
   WTH0 =      0 m
   LNBODY =      0 
   NNBODY =      0 
   PNBODY =      0 
   LPHIG =      0 
   NPHIG =      0 
   PPHIG =      0 
   LNGATE =      0 
   NNGATE =      0 
   PNGATE =      0 
   LCIT =      0 
   NCIT =      0 
   PCIT =      0 
   LCDSC =      0 
   NCDSC =      0 
   PCDSC =      0 
   LCDSCD =      0 
   NCDSCD =      0 
   PCDSCD =      0 
   LCDSCDR =      0 
   NCDSCDR =      0 
   PCDSCDR =      0 
   LDVT0 =      0 
   NDVT0 =      0 
   PDVT0 =      0 
   LDVT1 =      0 
   NDVT1 =      0 
   PDVT1 =      0 
   LPHIN =      0 
   NPHIN =      0 
   PPHIN =      0 
   LETA0 =      0 
   NETA0 =      0 
   PETA0 =      0 
   LETA0R =      0 
   NETA0R =      0 
   PETA0R =      0 
   LDSUB =      0 
   NDSUB =      0 
   PDSUB =      0 
   LK1RSCE =      0 
   NK1RSCE =      0 
   PK1RSCE =      0 
   LLPE0 =      0 
   NLPE0 =      0 
   PLPE0 =      0 
   LQMFACTOR =      0 
   NQMFACTOR =      0 
   PQMFACTOR =      0 
   LQMTCENIV =      0 
   NQMTCENIV =      0 
   PQMTCENIV =      0 
   LQMTCENCV =      0 
   NQMTCENCV =      0 
   PQMTCENCV =      0 
   LVSAT =      0 
   NVSAT =      0 
   PVSAT =      0 
   LKSATIV =      0 
   NKSATIV =      0 
   PKSATIV =      0 
   LMEXP =      0 
   NMEXP =      0 
   PMEXP =      0 
   LPTWG =      0 
   NPTWG =      0 
   PPTWG =      0 
   LTHETASAT =      0 
   NTHETASAT =      0 
   PTHETASAT =      0 
   LU0 =      0 
   NU0 =      0 
   PU0 =      0 
   LUP =      0 
   NUP =      0 
   PUP =      0 
   LUA =      0 
   NUA =      0 
   PUA =      0 
   LEU =      0 
   NEU =      0 
   PEU =      0 
   LUD =      0 
   NUD =      0 
   PUD =      0 
   LUCS =      0 
   NUCS =      0 
   PUCS =      0 
   LPCLM =      0 
   NPCLM =      0 
   PPCLM =      0 
   LPCLMCV =      0 
   NPCLMCV =      0 
   PPCLMCV =      0 
   LRDSW =      0 
   NRDSW =      0 
   PRDSW =      0 
   LRSW =      0 
   NRSW =      0 
   PRSW =      0 
   LRDW =      0 
   NRDW =      0 
   PRDW =      0 
   LPRWG =      0 
   NPRWG =      0 
   PPRWG =      0 
   LWR =      0 
   NWR =      0 
   PWR =      0 
   LPDIBL1 =      0 
   NPDIBL1 =      0 
   PPDIBL1 =      0 
   LPDIBL2 =      0 
   NPDIBL2 =      0 
   PPDIBL2 =      0 
   LDROUT =      0 
   NDROUT =      0 
   PDROUT =      0 
   LPVAG =      0 
   NPVAG =      0 
   PPVAG =      0 
   LAIGBINV =      0 
   NAIGBINV =      0 
   PAIGBINV =      0 
   LBIGBINV =      0 
   NBIGBINV =      0 
   PBIGBINV =      0 
   LCIGBINV =      0 
   NCIGBINV =      0 
   PCIGBINV =      0 
   LEIGBINV =      0 
   NEIGBINV =      0 
   PEIGBINV =      0 
   LNIGBINV =      0 
   NNIGBINV =      0 
   PNIGBINV =      0 
   LAIGC =      0 
   NAIGC =      0 
   PAIGC =      0 
   LBIGC =      0 
   NBIGC =      0 
   PBIGC =      0 
   LCIGC =      0 
   NCIGC =      0 
   PCIGC =      0 
   LNIGC =      0 
   NNIGC =      0 
   PNIGC =      0 
   LAIGS =      0 
   NAIGS =      0 
   PAIGS =      0 
   LBIGS =      0 
   NBIGS =      0 
   PBIGS =      0 
   LCIGS =      0 
   NCIGS =      0 
   PCIGS =      0 
   LAIGD =      0 
   NAIGD =      0 
   PAIGD =      0 
   LBIGD =      0 
   NBIGD =      0 
   PBIGD =      0 
   LCIGD =      0 
   NCIGD =      0 
   PCIGD =      0 
   LPOXEDGE =      0 
   NPOXEDGE =      0 
   PPOXEDGE =      0 
   LAGIDL =      0 
   NAGIDL =      0 
   PAGIDL =      0 
   LBGIDL =      0 
   NBGIDL =      0 
   PBGIDL =      0 
   LEGIDL =      0 
   NEGIDL =      0 
   PEGIDL =      0 
   LAGISL =      0 
   NAGISL =      0 
   PAGISL =      0 
   LBGISL =      0 
   NBGISL =      0 
   PBGISL =      0 
   LEGISL =      0 
   NEGISL =      0 
   PEGISL =      0 
   LALPHA0 =      0 
   NALPHA0 =      0 
   PALPHA0 =      0 
   LALPHA1 =      0 
   NALPHA1 =      0 
   PALPHA1 =      0 
   LBETA0 =      0 
   NBETA0 =      0 
   PBETA0 =      0 
   LALPHAII =      0 
   NALPHAII =      0 
   PALPHAII =      0 
   LBETAII0 =      0 
   NBETAII0 =      0 
   PBETAII0 =      0 
   LBETAII1 =      0 
   NBETAII1 =      0 
   PBETAII1 =      0 
   LBETAII2 =      0 
   NBETAII2 =      0 
   PBETAII2 =      0 
   LESATII =      0 
   NESATII =      0 
   PESATII =      0 
   LLII =      0 
   NLII =      0 
   PLII =      0 
   LSII0 =      0 
   NSII0 =      0 
   PSII0 =      0 
   LSII1 =      0 
   NSII1 =      0 
   PSII1 =      0 
   LSII2 =      0 
   NSII2 =      0 
   PSII2 =      0 
   LSIID =      0 
   NSIID =      0 
   PSIID =      0 
   LCFS =      0 
   NCFS =      0 
   PCFS =      0 
   LCFD =      0 
   NCFD =      0 
   PCFD =      0 
   LCOVS =      0 
   NCOVS =      0 
   PCOVS =      0 
   LCOVD =      0 
   NCOVD =      0 
   PCOVD =      0 
   LCGSL =      0 
   NCGSL =      0 
   PCGSL =      0 
   LCGDL =      0 
   NCGDL =      0 
   PCGDL =      0 
   LCKAPPAS =      0 
   NCKAPPAS =      0 
   PCKAPPAS =      0 
   LCKAPPAD =      0 
   NCKAPPAD =      0 
   PCKAPPAD =      0 
   LCGBL =      0 
   NCGBL =      0 
   PCGBL =      0 
   LCKAPPAB =      0 
   NCKAPPAB =      0 
   PCKAPPAB =      0 
   LNTGEN =      0 
   NNTGEN =      0 
   PNTGEN =      0 
   LAIGEN =      0 
   NAIGEN =      0 
   PAIGEN =      0 
   LBIGEN =      0 
   NBIGEN =      0 
   PBIGEN =      0 
   LXRCRG1 =      0 
   NXRCRG1 =      0 
   PXRCRG1 =      0 
   LXRCRG2 =      0 
   NXRCRG2 =      0 
   PXRCRG2 =      0 
   LINTNOI =      0 
   NINTNOI =      0 
   PINTNOI =      0 
   LUTE =      0 
   NUTE =      0 
   PUTE =      0 
   LUTL =      0 
   NUTL =      0 
   PUTL =      0 
   LUA1 =      0 
   NUA1 =      0 
   PUA1 =      0 
   LUD1 =      0 
   NUD1 =      0 
   PUD1 =      0 
   LUCSTE =      0 
   NUCSTE =      0 
   PUCSTE =      0 
   LPTWGT =      0 
   NPTWGT =      0 
   PPTWGT =      0 
   LAT =      0 
   NAT =      0 
   PAT =      0 
   LSTTHETASAT =      0 
   NSTTHETASAT =      0 
   PSTTHETASAT =      0 
   LPRT =      0 
   NPRT =      0 
   PPRT =      0 
   LIIT =      0 
   NIIT =      0 
   PIIT =      0 
   LTII =      0 
   NTII =      0 
   PTII =      0 
   LTGIDL =      0 
   NTGIDL =      0 
   PTGIDL =      0 
   LIGT =      0 
   NIGT =      0 
   PIGT =      0 
   L = 2.4e-08 m
   D =  4e-08 m
   TFIN = 1.5e-08 m
   FPITCH =  6e-08 m
   NF = 1 
   NFIN = 1 
   NGCON = 1 
   ASEO =      0 m^2
   ADEO =      0 m^2
   PSEO =      0 m
   PDEO =      0 m
   ASEJ =      0 m^2
   ADEJ =      0 m^2
   PSEJ =      0 m
   PDEJ =      0 m
   CGSP =      0 F
   CGDP =      0 F
   CDSP =      0 F
   NRS =      0 
   NRD =      0 
   LRSD = 2.4e-08 m
   XL =      0 m
   DELVTRAND =      0 
   U0MULT =      1 
   IDS0MULT =      1 
   Lmin =  1e-08 m
   Lmax = 2.4e-08 m
   NFINmin = 0 
   NFINmax = 1 
   LVSAT1 =      0 
   NVSAT1 =      0 
   PVSAT1 =      0 
   LETAMOB =      0 
   NETAMOB =      0 
   PETAMOB =      0 
   LPCLMG =      0 
   NPCLMG =      0 
   PPCLMG =      0 
   LVASAT =      0 
   NVASAT =      0 
   PVASAT =      0 
   LAIGBACC =      0 
   NAIGBACC =      0 
   PAIGBACC =      0 
   LBIGBACC =      0 
   NBIGBACC =      0 
   PBIGBACC =      0 
   LCIGBACC =      0 
   NCIGBACC =      0 
   PCIGBACC =      0 
   LNIGBACC =      0 
   NNIGBACC =      0 
   PNIGBACC =      0 
 Model Name: nfet 
 BSIM-MG BULK Model(Level72)
   VERSION = 105.03  
   DEVTYPE = 1 
   BULKMOD = 1  
   COREMOD = 0 
   GEOMOD = 1 
   RDSMOD = 1 
   IGCMOD = 1 
   IGBMOD = 1 
   GIDLMOD = 0 
   IIMOD = 0 
   NQSMOD = 0 
   SHMOD = 0 
   RGATEMOD = 0 
   RGEOMOD = 1 
   CGEOMOD = 2 
   CAPMOD = 0 
   LINT =  1e-09 m
   LL =      0 m^(LLN+1)
   LLN =      1 
   DLC =      0 m
   DLBIN =      0 
   LLC =      0 m^(LLN+1)
   EOT = 8.4e-10 m
   TOXP = 1.4e-09 m
   EOTBOX = 1.4e-07 m
   HFIN = 2.8e-08 m
   FECH =      1 
   DELTAW =      0 m
   FECHCV =      1 
   DELTAWCV =      0 m
   NBODY =  5e+23 m^-3
   NSD =  3e+26 m^-3
   PHIG =  4.375 eV
   EPSROX =    3.9 
   EPSRSUB =   11.9 
   EASUB =   4.05 eV
   NI0SUB = 1.1e+16 m^-3
   BG0SUB =   1.12 eV
   NC0SUB = 2.86e+25 m^-3
   NGATE =      0 m^-3
   CIT = 1.3e-05 F/m^2
   CDSC = 0.0132 F/m^2
   CDSCD =  0.007 F/m^2
   CDSCDR =  0.007 
   DVT0 =   0.01 
   DVT1 =   0.69 
   PHIN =   0.05 V
   ETA0 = 0.5063 
   ETA0R = 0.5063 
   DSUB =    0.9 
   K1RSCE =      0 V^1/2
   LPE0 =  5e-09 m
   DVTSHIFT =      0 
   QMFACTOR =      0 
   QMTCENIV =      0 
   QMTCENCV =      0 
   AQMTCEN =      0 
   BQMTCEN = 1.2e-08 
   ETAQM =   0.54 
   QM0 = 0.001143 
   PQM =   0.66 
   QM0ACC =  0.001 
   PQMACC =   0.66 
   VSAT = 8.5e+04 
   AVSAT =      0 
   BVSAT =  1e-07 
   VSAT1 = 8.5e+04 
   AVSAT1 =      0 
   BVSAT1 =  1e-07 
   DELTAVSAT =      1 
   KSATIV =    0.8 
   MEXP =      3 
   AMEXP =      0 
   BMEXP =      1 
   PTWG =      0 
   APTWG =      0 
   BPTWG =  1e-07 
   AT = -0.00156 
   TMEXP =      0 
   PTWGT =  0.004 
   U0 =  0.038 
   ETAMOB =      2 
   UP =      0 
   LPA =      1 
   UA =    0.3 
   AUA =      0 
   BUA =  1e-07 
   EU =    1.8 
   AEU =      0 
   BEU =  1e-07 
   UD =      0 
   AUD =      0 
   BUD =  5e-08 
   UCS =      0 
   UTE =      0 
   UTL = -0.0015 
   UA1 = 0.001032 
   UD1 =      0 
   UCSTE = -0.00478 
   RDSWMIN =      0 
   RDSW =    100 
   ARDSW =      0 
   BRDSW =  1e-07 
   RSWMIN =      0 
   RSW =      0 
   ARSW =      0 
   BRSW =  1e-07 
   RDWMIN =      0 
   RDW =      0 
   ARDW =      0 
   BRDW =  1e-07 
   PRWG =      0 
   WR =      1 
   PRT =  0.001 
   PDIBL1 =    1.3 
   PDIBL2 = 0.0002 
   DROUT =   1.06 
   PVAG =      1 
   PCLM =    0.2 
   APCLM =      0 
   BPCLM =  1e-07 
   PCLMG =      0 
   VASAT =    0.6 
   PCLMCV =  0.013 
   PCLMGCV =      0 
   VASATCV =    0.2 
   RGEXT =      0 ohm
   RGFIN =  0.001 ohm
   RSHS =      0 ohm
   RSHD =      0 ohm
   HEPI =  1e-08 m
   TSILI =  1e-08 m
   RHOC =  4e-12 ohm/m^2
   RHORSD =      1 ohm/m
   RHOEXT =      1 ohm/m
   CRATIO =    0.5 
   DELTAPRSD =      0 m
   SDTERM = 0 
   LSP = 4.8e-09 m
   LDG =  3e-09 m
   EPSRSP =    3.9 
   TGATE =  1e-08 m
   TMASK =      0 m
   ASILIEND =      0 m^2
   ARSDEND =      0 m^2
   PRSDEND =      0 m
   NSDE =  3e+25 m^-3
   RGEOA =      1 
   RGEOB =      0 m^-1
   RGEOC =      0 m^-1
   RGEOD =      0 m^-1
   RGEOE =      0 m^-1
   CGEOA =      1 
   CGEOB =      0 m^-1
   CGEOC =      0 m^-1
   CGEOD =      0 m^-1
   CGEOE =      1 
   AIGBINV = 0.0111 (Fs^2/g)^0.5m^-1
   BIGBINV =   0.03 (Fs^2/g)^0.5m^-1
   CIGBINV =  0.006 V^-1
   EIGBINV =    1.1 V
   NIGBINV =    1.2 
   AIGBACC = 0.0149 
   BIGBACC = 0.000949 
   CIGBACC =  0.075 
   NIGBACC =      3 
   AIGC = 0.0136 (Fs^2/g)^0.5m^-1
   BIGC = 0.00171 (Fs^2/g)^0.5m^-1V^-1
   CIGC =  0.075 V^-1
   NIGC =      1 
   DLCIGS =      0 m
   AIGS = 0.0136 (Fs^2/g)^0.5m^-1
   BIGS = 0.00171 (Fs^2/g)^0.5m^-1V^-1
   CIGS =  0.075 V^-1
   DLCIGD =      0 m
   AIGD = 0.0136 (Fs^2/g)^0.5m^-1
   BIGD = 0.00171 (Fs^2/g)^0.5m^-1V^-1
   CIGD =  0.075 V^-1
   POXEDGE =      1 
   AGIDL = 5.729e-12 ohm^-1
   BGIDL =  3e+08 V/m
   EGIDL =    0.1 V
   AGISL = 5.729e-12 ohm^-1
   BGISL =  3e+08 V/m
   EGISL =    0.1 V
   ALPHA0 =      0 mV^-1
   ALPHA1 =      0 V^-1
   BETA0 =     30 V^-1
   ALPHAII =      0 
   BETAII0 =      0 V^-1
   BETAII1 =      0 
   BETAII2 =    0.1 V
   ESATII =  1e+07 V/m
   LII =  5e-10 V/m
   SII0 =    0.5 V^-1
   SII1 =    0.1 
   SII2 =      0 V
   SIID =      0 V
   EOTACC = 8.4e-10 m
   DELVFBACC =      0 V
   CFS = 2.56e-11 F/m
   CFD = 2.65e-11 F/m
   COVS = 2.5e-11 F/m
   COVD = 2.5e-11 F/m
   CGSO =      0 F/m
   CGDO =      0 F/m
   CGSL =      0 F/m
   CGDL =      0 F/m
   CKAPPAS =    0.6 V
   CKAPPAD =    0.6 V
   CGBO =      0 F/m
   CGBL =      0 F/m
   CKAPPAB =    0.6 V
   CSDESW =      0 F/m
   CJS = 0.0005 F/m^2
   CJD = 0.0005 F/m^2
   CJSWS =  5e-10 F/m
   CJSWD =  5e-10 F/m
   CJSWGS =      0 F/m
   CJSWGD =      0 F/m
   PBS =      1 V
   PBD =      1 V
   PBSWS =      1 V
   PBSWD =      1 V
   PBSWGS =      1 V
   PBSWGD =      1 V
   MJS, =    0.5 
   MJD =    0.5 
   MJSWS =   0.33 
   MJSWD =   0.33 
   MJSWGS =   0.33 
   MJSWGD =   0.33 
   SJS =      0 
   SJD =      0 
   SJSWS =      0 
   SJSWD =      0 
   SJSWGS =      0 
   SJSWGD =      0 
   MJS2 =  0.125 
   MJD2 =  0.125 
   MJSWS2 =   0.33 
   MJSWD2 =   0.33 
   MJSWGS2 =   0.33 
   MJSWGD2 =   0.33 
   JSS = 0.0001 A/m^2
   JSD = 0.0001 A/m^2
   JSWS =      0 A/m
   JSWD =      0 A/m
   JSWGS =      0 A/m
   JSWGD =      0 A/m
   NJS =      1 
   NJD =      1 
   IJTHSFWD =    0.1 A
   IJTHDFWD =    0.1 A
   IJTHSREV =    0.1 A
   IJTHDREV =    0.1 A
   BVS =     10 V
   BVD =     10 V
   XJBVS =      1 
   XJBVD =      1 
   JTSS =      0 A/m^2
   JTSD =      0 A/m^2
   JTSSWS =      0 A/m
   JTSSWD =      0 A/m
   JTSSWGS =      0 A/m
   JTSSWGD =      0 A/m
   JTWEFF =      0 m
   NJTS =     20 
   NJTSD =     20 
   NJTSSW =     20 
   NJTSSWD =     20 
   NJTSSWG =     20 
   NJTSSWGD =     20 
   VTSS =     10 V
   VTSD =     10 V
   VTSSWS =     10 V
   VTSSWD =     10 V
   VTSSWGS =     10 V
   VTSSWGD =     10 V
   LINTIGEN =      0 m
   NTGEN =      1 
   AIGEN =      0 m^-3V^-1
   BIGEN =      0 m^-3V^-3
   XRCRG1 =     12 
   XRCRG2 =      1 
   NSEG = 5 
   EF =      1 
   EM = 4.1e+07 V/m
   NOIA = 6.25e+39 eV^-1s^1-EFm^-3
   NOIB = 3.125e+24 eV^-1s^1-EFm^-1
   NOIC = 8.75e+07 eV^-1s^1-EFm
   NTNOI =      1 
   TNOM =  300.1 K
   TBGASUB = 0.000702 eV/K
   TBGBSUB =   1108 K
   KT1 =      0 V
   KT1L =      0 Vm
   IIT =   -0.5 
   TII =      0 
   TGIDL = -0.0003 K^-1
   IGT =    2.5 
   TCJ =      0 K^-1
   TCJSW =      0 K^-1
   TCJSWG =      0 K^-1
   TPB =      0 K^-1
   TPBSW =      0 K^-1
   TPBSWG =      0 K^-1
   XTIS =      3 
   XTID =      3 
   XTSS =   0.02 
   XTSD =   0.02 
   XTSSWS =   0.02 
   XTSSWD =   0.02 
   XTSSWGS =   0.02 
   XTSSWGD =   0.02 
   TNJTS =      0 
   TNJTSD =      0 
   TNJTSSW =      0 
   TNJTSSWD =      0 
   TNJTSSWG =      0 
   TNJTSSWGD =      0 
   RTH0 =   0.01 ohm
   CTH0 =  1e-05 F
   WTH0 =      0 m
   LNBODY =      0 
   NNBODY =      0 
   PNBODY =      0 
   LPHIG =      0 
   NPHIG =      0 
   PPHIG =      0 
   LNGATE =      0 
   NNGATE =      0 
   PNGATE =      0 
   LCIT =      0 
   NCIT =      0 
   PCIT =      0 
   LCDSC =      0 
   NCDSC =      0 
   PCDSC =      0 
   LCDSCD =      0 
   NCDSCD =      0 
   PCDSCD =      0 
   LCDSCDR =      0 
   NCDSCDR =      0 
   PCDSCDR =      0 
   LDVT0 =      0 
   NDVT0 =      0 
   PDVT0 =      0 
   LDVT1 =      0 
   NDVT1 =      0 
   PDVT1 =      0 
   LPHIN =      0 
   NPHIN =      0 
   PPHIN =      0 
   LETA0 =      0 
   NETA0 =      0 
   PETA0 =      0 
   LETA0R =      0 
   NETA0R =      0 
   PETA0R =      0 
   LDSUB =      0 
   NDSUB =      0 
   PDSUB =      0 
   LK1RSCE =      0 
   NK1RSCE =      0 
   PK1RSCE =      0 
   LLPE0 =      0 
   NLPE0 =      0 
   PLPE0 =      0 
   LQMFACTOR =      0 
   NQMFACTOR =      0 
   PQMFACTOR =      0 
   LQMTCENIV =      0 
   NQMTCENIV =      0 
   PQMTCENIV =      0 
   LQMTCENCV =      0 
   NQMTCENCV =      0 
   PQMTCENCV =      0 
   LVSAT =      0 
   NVSAT =      0 
   PVSAT =      0 
   LKSATIV =      0 
   NKSATIV =      0 
   PKSATIV =      0 
   LMEXP =      0 
   NMEXP =      0 
   PMEXP =      0 
   LPTWG =      0 
   NPTWG =      0 
   PPTWG =      0 
   LTHETASAT =      0 
   NTHETASAT =      0 
   PTHETASAT =      0 
   LU0 =      0 
   NU0 =      0 
   PU0 =      0 
   LUP =      0 
   NUP =      0 
   PUP =      0 
   LUA =      0 
   NUA =      0 
   PUA =      0 
   LEU =      0 
   NEU =      0 
   PEU =      0 
   LUD =      0 
   NUD =      0 
   PUD =      0 
   LUCS =      0 
   NUCS =      0 
   PUCS =      0 
   LPCLM =      0 
   NPCLM =      0 
   PPCLM =      0 
   LPCLMCV =      0 
   NPCLMCV =      0 
   PPCLMCV =      0 
   LRDSW =      0 
   NRDSW =      0 
   PRDSW =      0 
   LRSW =      0 
   NRSW =      0 
   PRSW =      0 
   LRDW =      0 
   NRDW =      0 
   PRDW =      0 
   LPRWG =      0 
   NPRWG =      0 
   PPRWG =      0 
   LWR =      0 
   NWR =      0 
   PWR =      0 
   LPDIBL1 =      0 
   NPDIBL1 =      0 
   PPDIBL1 =      0 
   LPDIBL2 =      0 
   NPDIBL2 =      0 
   PPDIBL2 =      0 
   LDROUT =      0 
   NDROUT =      0 
   PDROUT =      0 
   LPVAG =      0 
   NPVAG =      0 
   PPVAG =      0 
   LAIGBINV =      0 
   NAIGBINV =      0 
   PAIGBINV =      0 
   LBIGBINV =      0 
   NBIGBINV =      0 
   PBIGBINV =      0 
   LCIGBINV =      0 
   NCIGBINV =      0 
   PCIGBINV =      0 
   LEIGBINV =      0 
   NEIGBINV =      0 
   PEIGBINV =      0 
   LNIGBINV =      0 
   NNIGBINV =      0 
   PNIGBINV =      0 
   LAIGC =      0 
   NAIGC =      0 
   PAIGC =      0 
   LBIGC =      0 
   NBIGC =      0 
   PBIGC =      0 
   LCIGC =      0 
   NCIGC =      0 
   PCIGC =      0 
   LNIGC =      0 
   NNIGC =      0 
   PNIGC =      0 
   LAIGS =      0 
   NAIGS =      0 
   PAIGS =      0 
   LBIGS =      0 
   NBIGS =      0 
   PBIGS =      0 
   LCIGS =      0 
   NCIGS =      0 
   PCIGS =      0 
   LAIGD =      0 
   NAIGD =      0 
   PAIGD =      0 
   LBIGD =      0 
   NBIGD =      0 
   PBIGD =      0 
   LCIGD =      0 
   NCIGD =      0 
   PCIGD =      0 
   LPOXEDGE =      0 
   NPOXEDGE =      0 
   PPOXEDGE =      0 
   LAGIDL =      0 
   NAGIDL =      0 
   PAGIDL =      0 
   LBGIDL =      0 
   NBGIDL =      0 
   PBGIDL =      0 
   LEGIDL =      0 
   NEGIDL =      0 
   PEGIDL =      0 
   LAGISL =      0 
   NAGISL =      0 
   PAGISL =      0 
   LBGISL =      0 
   NBGISL =      0 
   PBGISL =      0 
   LEGISL =      0 
   NEGISL =      0 
   PEGISL =      0 
   LALPHA0 =      0 
   NALPHA0 =      0 
   PALPHA0 =      0 
   LALPHA1 =      0 
   NALPHA1 =      0 
   PALPHA1 =      0 
   LBETA0 =      0 
   NBETA0 =      0 
   PBETA0 =      0 
   LALPHAII =      0 
   NALPHAII =      0 
   PALPHAII =      0 
   LBETAII0 =      0 
   NBETAII0 =      0 
   PBETAII0 =      0 
   LBETAII1 =      0 
   NBETAII1 =      0 
   PBETAII1 =      0 
   LBETAII2 =      0 
   NBETAII2 =      0 
   PBETAII2 =      0 
   LESATII =      0 
   NESATII =      0 
   PESATII =      0 
   LLII =      0 
   NLII =      0 
   PLII =      0 
   LSII0 =      0 
   NSII0 =      0 
   PSII0 =      0 
   LSII1 =      0 
   NSII1 =      0 
   PSII1 =      0 
   LSII2 =      0 
   NSII2 =      0 
   PSII2 =      0 
   LSIID =      0 
   NSIID =      0 
   PSIID =      0 
   LCFS =      0 
   NCFS =      0 
   PCFS =      0 
   LCFD =      0 
   NCFD =      0 
   PCFD =      0 
   LCOVS =      0 
   NCOVS =      0 
   PCOVS =      0 
   LCOVD =      0 
   NCOVD =      0 
   PCOVD =      0 
   LCGSL =      0 
   NCGSL =      0 
   PCGSL =      0 
   LCGDL =      0 
   NCGDL =      0 
   PCGDL =      0 
   LCKAPPAS =      0 
   NCKAPPAS =      0 
   PCKAPPAS =      0 
   LCKAPPAD =      0 
   NCKAPPAD =      0 
   PCKAPPAD =      0 
   LCGBL =      0 
   NCGBL =      0 
   PCGBL =      0 
   LCKAPPAB =      0 
   NCKAPPAB =      0 
   PCKAPPAB =      0 
   LNTGEN =      0 
   NNTGEN =      0 
   PNTGEN =      0 
   LAIGEN =      0 
   NAIGEN =      0 
   PAIGEN =      0 
   LBIGEN =      0 
   NBIGEN =      0 
   PBIGEN =      0 
   LXRCRG1 =      0 
   NXRCRG1 =      0 
   PXRCRG1 =      0 
   LXRCRG2 =      0 
   NXRCRG2 =      0 
   PXRCRG2 =      0 
   LINTNOI =      0 
   NINTNOI =      0 
   PINTNOI =      0 
   LUTE =      0 
   NUTE =      0 
   PUTE =      0 
   LUTL =      0 
   NUTL =      0 
   PUTL =      0 
   LUA1 =      0 
   NUA1 =      0 
   PUA1 =      0 
   LUD1 =      0 
   NUD1 =      0 
   PUD1 =      0 
   LUCSTE =      0 
   NUCSTE =      0 
   PUCSTE =      0 
   LPTWGT =      0 
   NPTWGT =      0 
   PPTWGT =      0 
   LAT =      0 
   NAT =      0 
   PAT =      0 
   LSTTHETASAT =      0 
   NSTTHETASAT =      0 
   PSTTHETASAT =      0 
   LPRT =      0 
   NPRT =      0 
   PPRT =      0 
   LIIT =      0 
   NIIT =      0 
   PIIT =      0 
   LTII =      0 
   NTII =      0 
   PTII =      0 
   LTGIDL =      0 
   NTGIDL =      0 
   PTGIDL =      0 
   LIGT =      0 
   NIGT =      0 
   PIGT =      0 
   L = 2.4e-08 m
   D =  4e-08 m
   TFIN = 1.5e-08 m
   FPITCH =  6e-08 m
   NF = 1 
   NFIN = 1 
   NGCON = 1 
   ASEO =      0 m^2
   ADEO =      0 m^2
   PSEO =      0 m
   PDEO =      0 m
   ASEJ =      0 m^2
   ADEJ =      0 m^2
   PSEJ =      0 m
   PDEJ =      0 m
   CGSP =      0 F
   CGDP =      0 F
   CDSP =      0 F
   NRS =      0 
   NRD =      0 
   LRSD = 2.4e-08 m
   XL =      0 m
   DELVTRAND =      0 
   U0MULT =      1 
   IDS0MULT =      1 
   Lmin =  1e-08 m
   Lmax = 2.4e-08 m
   NFINmin = 0 
   NFINmax = 1 
   LVSAT1 =      0 
   NVSAT1 =      0 
   PVSAT1 =      0 
   LETAMOB =      0 
   NETAMOB =      0 
   PETAMOB =      0 
   LPCLMG =      0 
   NPCLMG =      0 
   PPCLMG =      0 
   LVASAT =      0 
   NVASAT =      0 
   PVASAT =      0 
   LAIGBACC =      0 
   NAIGBACC =      0 
   PAIGBACC =      0 
   LBIGBACC =      0 
   NBIGBACC =      0 
   PBIGBACC =      0 
   LCIGBACC =      0 
   NCIGBACC =      0 
   PCIGBACC =      0 
   LNIGBACC =      0 
   NNIGBACC =      0 
   PNIGBACC =      0 
 Model Name: pfet 
 BSIM-MG BULK Model(Level72)
   VERSION = 105.03  
   DEVTYPE = -1 
   BULKMOD = 1  
   COREMOD = 0 
   GEOMOD = 1 
   RDSMOD = 1 
   IGCMOD = 1 
   IGBMOD = 1 
   GIDLMOD = 0 
   IIMOD = 0 
   NQSMOD = 0 
   SHMOD = 0 
   RGATEMOD = 0 
   RGEOMOD = 1 
   CGEOMOD = 2 
   CAPMOD = 0 
   LINT =  1e-09 m
   LL =      0 m^(LLN+1)
   LLN =      1 
   DLC =      0 m
   DLBIN =      0 
   LLC =      0 m^(LLN+1)
   EOT = 8.4e-10 m
   TOXP = 1.4e-09 m
   EOTBOX = 1.4e-07 m
   HFIN = 2.8e-08 m
   FECH =      1 
   DELTAW =      0 m
   FECHCV =      1 
   DELTAWCV =      0 m
   NBODY =  5e+23 m^-3
   NSD =  3e+26 m^-3
   PHIG =  4.798 eV
   EPSROX =    3.9 
   EPSRSUB =   11.9 
   EASUB =   4.05 eV
   NI0SUB = 1.1e+16 m^-3
   BG0SUB =   1.12 eV
   NC0SUB = 2.86e+25 m^-3
   NGATE =      0 m^-3
   CIT = 1.3e-05 F/m^2
   CDSC = 0.0132 F/m^2
   CDSCD =  0.007 F/m^2
   CDSCDR =  0.007 
   DVT0 =   0.01 
   DVT1 =   0.69 
   PHIN =   0.05 V
   ETA0 =   0.71 
   ETA0R =   0.71 
   DSUB =    0.9 
   K1RSCE =      0 V^1/2
   LPE0 =  5e-09 m
   DVTSHIFT =      0 
   QMFACTOR =      0 
   QMTCENIV =      0 
   QMTCENCV =      0 
   AQMTCEN =      0 
   BQMTCEN = 1.2e-08 
   ETAQM =   0.54 
   QM0 = 0.001143 
   PQM =   0.66 
   QM0ACC =  0.001 
   PQMACC =   0.66 
   VSAT = 8.4e+04 
   AVSAT =      0 
   BVSAT =  1e-07 
   VSAT1 = 8.4e+04 
   AVSAT1 =      0 
   BVSAT1 =  1e-07 
   DELTAVSAT =      1 
   KSATIV =    0.8 
   MEXP =      3 
   AMEXP =      0 
   BMEXP =      1 
   PTWG =      0 
   APTWG =      0 
   BPTWG =  1e-07 
   AT = -0.00156 
   TMEXP =      0 
   PTWGT =  0.004 
   U0 =  0.026 
   ETAMOB =      2 
   UP =      0 
   LPA =      1 
   UA =    0.3 
   AUA =      0 
   BUA =  1e-07 
   EU =    1.8 
   AEU =      0 
   BEU =  1e-07 
   UD =      0 
   AUD =      0 
   BUD =  5e-08 
   UCS =      0 
   UTE =      0 
   UTL = -0.0015 
   UA1 = 0.001032 
   UD1 =      0 
   UCSTE = -0.00478 
   RDSWMIN =      0 
   RDSW =    100 
   ARDSW =      0 
   BRDSW =  1e-07 
   RSWMIN =      0 
   RSW =      0 
   ARSW =      0 
   BRSW =  1e-07 
   RDWMIN =      0 
   RDW =      0 
   ARDW =      0 
   BRDW =  1e-07 
   PRWG =      0 
   WR =      1 
   PRT =  0.001 
   PDIBL1 =    1.3 
   PDIBL2 = 0.0002 
   DROUT =   1.06 
   PVAG =      1 
   PCLM =    0.2 
   APCLM =      0 
   BPCLM =  1e-07 
   PCLMG =      0 
   VASAT =    0.6 
   PCLMCV =  0.013 
   PCLMGCV =      0 
   VASATCV =    0.2 
   RGEXT =      0 ohm
   RGFIN =  0.001 ohm
   RSHS =      0 ohm
   RSHD =      0 ohm
   HEPI =  1e-08 m
   TSILI =  1e-08 m
   RHOC =  5e-12 ohm/m^2
   RHORSD =      1 ohm/m
   RHOEXT =      1 ohm/m
   CRATIO =    0.5 
   DELTAPRSD =      0 m
   SDTERM = 0 
   LSP = 4.8e-09 m
   LDG =  3e-09 m
   EPSRSP =    3.9 
   TGATE =  1e-08 m
   TMASK =      0 m
   ASILIEND =      0 m^2
   ARSDEND =      0 m^2
   PRSDEND =      0 m
   NSDE =  3e+25 m^-3
   RGEOA =      1 
   RGEOB =      0 m^-1
   RGEOC =      0 m^-1
   RGEOD =      0 m^-1
   RGEOE =      0 m^-1
   CGEOA =      1 
   CGEOB =      0 m^-1
   CGEOC =      0 m^-1
   CGEOD =      0 m^-1
   CGEOE =      1 
   AIGBINV = 0.0111 (Fs^2/g)^0.5m^-1
   BIGBINV =   0.03 (Fs^2/g)^0.5m^-1
   CIGBINV =  0.006 V^-1
   EIGBINV =    1.1 V
   NIGBINV =    1.2 
   AIGBACC = 0.0149 
   BIGBACC = 0.000949 
   CIGBACC =  0.075 
   NIGBACC =      3 
   AIGC = 0.0136 (Fs^2/g)^0.5m^-1
   BIGC = 0.00171 (Fs^2/g)^0.5m^-1V^-1
   CIGC =  0.075 V^-1
   NIGC =      1 
   DLCIGS =      0 m
   AIGS = 0.0136 (Fs^2/g)^0.5m^-1
   BIGS = 0.00171 (Fs^2/g)^0.5m^-1V^-1
   CIGS =  0.075 V^-1
   DLCIGD =      0 m
   AIGD = 0.0136 (Fs^2/g)^0.5m^-1
   BIGD = 0.00171 (Fs^2/g)^0.5m^-1V^-1
   CIGD =  0.075 V^-1
   POXEDGE =      1 
   AGIDL = 5.729e-12 ohm^-1
   BGIDL =  3e+08 V/m
   EGIDL =    0.1 V
   AGISL = 5.729e-12 ohm^-1
   BGISL =  3e+08 V/m
   EGISL =    0.1 V
   ALPHA0 =      0 mV^-1
   ALPHA1 =      0 V^-1
   BETA0 =     30 V^-1
   ALPHAII =      0 
   BETAII0 =      0 V^-1
   BETAII1 =      0 
   BETAII2 =    0.1 V
   ESATII =  1e+07 V/m
   LII =  5e-10 V/m
   SII0 =    0.5 V^-1
   SII1 =    0.1 
   SII2 =      0 V
   SIID =      0 V
   EOTACC = 8.4e-10 m
   DELVFBACC =      0 V
   CFS = 2.56e-11 F/m
   CFD = 2.65e-11 F/m
   COVS = 2.5e-11 F/m
   COVD = 2.5e-11 F/m
   CGSO =      0 F/m
   CGDO =      0 F/m
   CGSL =      0 F/m
   CGDL =      0 F/m
   CKAPPAS =    0.6 V
   CKAPPAD =    0.6 V
   CGBO =      0 F/m
   CGBL =      0 F/m
   CKAPPAB =    0.6 V
   CSDESW =      0 F/m
   CJS = 0.0005 F/m^2
   CJD = 0.0005 F/m^2
   CJSWS =  5e-10 F/m
   CJSWD =  5e-10 F/m
   CJSWGS =      0 F/m
   CJSWGD =      0 F/m
   PBS =      1 V
   PBD =      1 V
   PBSWS =      1 V
   PBSWD =      1 V
   PBSWGS =      1 V
   PBSWGD =      1 V
   MJS, =    0.5 
   MJD =    0.5 
   MJSWS =   0.33 
   MJSWD =   0.33 
   MJSWGS =   0.33 
   MJSWGD =   0.33 
   SJS =      0 
   SJD =      0 
   SJSWS =      0 
   SJSWD =      0 
   SJSWGS =      0 
   SJSWGD =      0 
   MJS2 =  0.125 
   MJD2 =  0.125 
   MJSWS2 =   0.33 
   MJSWD2 =   0.33 
   MJSWGS2 =   0.33 
   MJSWGD2 =   0.33 
   JSS = 0.0001 A/m^2
   JSD = 0.0001 A/m^2
   JSWS =      0 A/m
   JSWD =      0 A/m
   JSWGS =      0 A/m
   JSWGD =      0 A/m
   NJS =      1 
   NJD =      1 
   IJTHSFWD =    0.1 A
   IJTHDFWD =    0.1 A
   IJTHSREV =    0.1 A
   IJTHDREV =    0.1 A
   BVS =     10 V
   BVD =     10 V
   XJBVS =      1 
   XJBVD =      1 
   JTSS =      0 A/m^2
   JTSD =      0 A/m^2
   JTSSWS =      0 A/m
   JTSSWD =      0 A/m
   JTSSWGS =      0 A/m
   JTSSWGD =      0 A/m
   JTWEFF =      0 m
   NJTS =     20 
   NJTSD =     20 
   NJTSSW =     20 
   NJTSSWD =     20 
   NJTSSWG =     20 
   NJTSSWGD =     20 
   VTSS =     10 V
   VTSD =     10 V
   VTSSWS =     10 V
   VTSSWD =     10 V
   VTSSWGS =     10 V
   VTSSWGD =     10 V
   LINTIGEN =      0 m
   NTGEN =      1 
   AIGEN =      0 m^-3V^-1
   BIGEN =      0 m^-3V^-3
   XRCRG1 =     12 
   XRCRG2 =      1 
   NSEG = 5 
   EF =      1 
   EM = 4.1e+07 V/m
   NOIA = 6.25e+39 eV^-1s^1-EFm^-3
   NOIB = 3.125e+24 eV^-1s^1-EFm^-1
   NOIC = 8.75e+07 eV^-1s^1-EFm
   NTNOI =      1 
   TNOM =  300.1 K
   TBGASUB = 0.000702 eV/K
   TBGBSUB =   1108 K
   KT1 =      0 V
   KT1L =      0 Vm
   IIT =   -0.5 
   TII =      0 
   TGIDL = -0.0003 K^-1
   IGT =    2.5 
   TCJ =      0 K^-1
   TCJSW =      0 K^-1
   TCJSWG =      0 K^-1
   TPB =      0 K^-1
   TPBSW =      0 K^-1
   TPBSWG =      0 K^-1
   XTIS =      3 
   XTID =      3 
   XTSS =   0.02 
   XTSD =   0.02 
   XTSSWS =   0.02 
   XTSSWD =   0.02 
   XTSSWGS =   0.02 
   XTSSWGD =   0.02 
   TNJTS =      0 
   TNJTSD =      0 
   TNJTSSW =      0 
   TNJTSSWD =      0 
   TNJTSSWG =      0 
   TNJTSSWGD =      0 
   RTH0 =   0.01 ohm
   CTH0 =  1e-05 F
   WTH0 =      0 m
   LNBODY =      0 
   NNBODY =      0 
   PNBODY =      0 
   LPHIG =      0 
   NPHIG =      0 
   PPHIG =      0 
   LNGATE =      0 
   NNGATE =      0 
   PNGATE =      0 
   LCIT =      0 
   NCIT =      0 
   PCIT =      0 
   LCDSC =      0 
   NCDSC =      0 
   PCDSC =      0 
   LCDSCD =      0 
   NCDSCD =      0 
   PCDSCD =      0 
   LCDSCDR =      0 
   NCDSCDR =      0 
   PCDSCDR =      0 
   LDVT0 =      0 
   NDVT0 =      0 
   PDVT0 =      0 
   LDVT1 =      0 
   NDVT1 =      0 
   PDVT1 =      0 
   LPHIN =      0 
   NPHIN =      0 
   PPHIN =      0 
   LETA0 =      0 
   NETA0 =      0 
   PETA0 =      0 
   LETA0R =      0 
   NETA0R =      0 
   PETA0R =      0 
   LDSUB =      0 
   NDSUB =      0 
   PDSUB =      0 
   LK1RSCE =      0 
   NK1RSCE =      0 
   PK1RSCE =      0 
   LLPE0 =      0 
   NLPE0 =      0 
   PLPE0 =      0 
   LQMFACTOR =      0 
   NQMFACTOR =      0 
   PQMFACTOR =      0 
   LQMTCENIV =      0 
   NQMTCENIV =      0 
   PQMTCENIV =      0 
   LQMTCENCV =      0 
   NQMTCENCV =      0 
   PQMTCENCV =      0 
   LVSAT =      0 
   NVSAT =      0 
   PVSAT =      0 
   LKSATIV =      0 
   NKSATIV =      0 
   PKSATIV =      0 
   LMEXP =      0 
   NMEXP =      0 
   PMEXP =      0 
   LPTWG =      0 
   NPTWG =      0 
   PPTWG =      0 
   LTHETASAT =      0 
   NTHETASAT =      0 
   PTHETASAT =      0 
   LU0 =      0 
   NU0 =      0 
   PU0 =      0 
   LUP =      0 
   NUP =      0 
   PUP =      0 
   LUA =      0 
   NUA =      0 
   PUA =      0 
   LEU =      0 
   NEU =      0 
   PEU =      0 
   LUD =      0 
   NUD =      0 
   PUD =      0 
   LUCS =      0 
   NUCS =      0 
   PUCS =      0 
   LPCLM =      0 
   NPCLM =      0 
   PPCLM =      0 
   LPCLMCV =      0 
   NPCLMCV =      0 
   PPCLMCV =      0 
   LRDSW =      0 
   NRDSW =      0 
   PRDSW =      0 
   LRSW =      0 
   NRSW =      0 
   PRSW =      0 
   LRDW =      0 
   NRDW =      0 
   PRDW =      0 
   LPRWG =      0 
   NPRWG =      0 
   PPRWG =      0 
   LWR =      0 
   NWR =      0 
   PWR =      0 
   LPDIBL1 =      0 
   NPDIBL1 =      0 
   PPDIBL1 =      0 
   LPDIBL2 =      0 
   NPDIBL2 =      0 
   PPDIBL2 =      0 
   LDROUT =      0 
   NDROUT =      0 
   PDROUT =      0 
   LPVAG =      0 
   NPVAG =      0 
   PPVAG =      0 
   LAIGBINV =      0 
   NAIGBINV =      0 
   PAIGBINV =      0 
   LBIGBINV =      0 
   NBIGBINV =      0 
   PBIGBINV =      0 
   LCIGBINV =      0 
   NCIGBINV =      0 
   PCIGBINV =      0 
   LEIGBINV =      0 
   NEIGBINV =      0 
   PEIGBINV =      0 
   LNIGBINV =      0 
   NNIGBINV =      0 
   PNIGBINV =      0 
   LAIGC =      0 
   NAIGC =      0 
   PAIGC =      0 
   LBIGC =      0 
   NBIGC =      0 
   PBIGC =      0 
   LCIGC =      0 
   NCIGC =      0 
   PCIGC =      0 
   LNIGC =      0 
   NNIGC =      0 
   PNIGC =      0 
   LAIGS =      0 
   NAIGS =      0 
   PAIGS =      0 
   LBIGS =      0 
   NBIGS =      0 
   PBIGS =      0 
   LCIGS =      0 
   NCIGS =      0 
   PCIGS =      0 
   LAIGD =      0 
   NAIGD =      0 
   PAIGD =      0 
   LBIGD =      0 
   NBIGD =      0 
   PBIGD =      0 
   LCIGD =      0 
   NCIGD =      0 
   PCIGD =      0 
   LPOXEDGE =      0 
   NPOXEDGE =      0 
   PPOXEDGE =      0 
   LAGIDL =      0 
   NAGIDL =      0 
   PAGIDL =      0 
   LBGIDL =      0 
   NBGIDL =      0 
   PBGIDL =      0 
   LEGIDL =      0 
   NEGIDL =      0 
   PEGIDL =      0 
   LAGISL =      0 
   NAGISL =      0 
   PAGISL =      0 
   LBGISL =      0 
   NBGISL =      0 
   PBGISL =      0 
   LEGISL =      0 
   NEGISL =      0 
   PEGISL =      0 
   LALPHA0 =      0 
   NALPHA0 =      0 
   PALPHA0 =      0 
   LALPHA1 =      0 
   NALPHA1 =      0 
   PALPHA1 =      0 
   LBETA0 =      0 
   NBETA0 =      0 
   PBETA0 =      0 
   LALPHAII =      0 
   NALPHAII =      0 
   PALPHAII =      0 
   LBETAII0 =      0 
   NBETAII0 =      0 
   PBETAII0 =      0 
   LBETAII1 =      0 
   NBETAII1 =      0 
   PBETAII1 =      0 
   LBETAII2 =      0 
   NBETAII2 =      0 
   PBETAII2 =      0 
   LESATII =      0 
   NESATII =      0 
   PESATII =      0 
   LLII =      0 
   NLII =      0 
   PLII =      0 
   LSII0 =      0 
   NSII0 =      0 
   PSII0 =      0 
   LSII1 =      0 
   NSII1 =      0 
   PSII1 =      0 
   LSII2 =      0 
   NSII2 =      0 
   PSII2 =      0 
   LSIID =      0 
   NSIID =      0 
   PSIID =      0 
   LCFS =      0 
   NCFS =      0 
   PCFS =      0 
   LCFD =      0 
   NCFD =      0 
   PCFD =      0 
   LCOVS =      0 
   NCOVS =      0 
   PCOVS =      0 
   LCOVD =      0 
   NCOVD =      0 
   PCOVD =      0 
   LCGSL =      0 
   NCGSL =      0 
   PCGSL =      0 
   LCGDL =      0 
   NCGDL =      0 
   PCGDL =      0 
   LCKAPPAS =      0 
   NCKAPPAS =      0 
   PCKAPPAS =      0 
   LCKAPPAD =      0 
   NCKAPPAD =      0 
   PCKAPPAD =      0 
   LCGBL =      0 
   NCGBL =      0 
   PCGBL =      0 
   LCKAPPAB =      0 
   NCKAPPAB =      0 
   PCKAPPAB =      0 
   LNTGEN =      0 
   NNTGEN =      0 
   PNTGEN =      0 
   LAIGEN =      0 
   NAIGEN =      0 
   PAIGEN =      0 
   LBIGEN =      0 
   NBIGEN =      0 
   PBIGEN =      0 
   LXRCRG1 =      0 
   NXRCRG1 =      0 
   PXRCRG1 =      0 
   LXRCRG2 =      0 
   NXRCRG2 =      0 
   PXRCRG2 =      0 
   LINTNOI =      0 
   NINTNOI =      0 
   PINTNOI =      0 
   LUTE =      0 
   NUTE =      0 
   PUTE =      0 
   LUTL =      0 
   NUTL =      0 
   PUTL =      0 
   LUA1 =      0 
   NUA1 =      0 
   PUA1 =      0 
   LUD1 =      0 
   NUD1 =      0 
   PUD1 =      0 
   LUCSTE =      0 
   NUCSTE =      0 
   PUCSTE =      0 
   LPTWGT =      0 
   NPTWGT =      0 
   PPTWGT =      0 
   LAT =      0 
   NAT =      0 
   PAT =      0 
   LSTTHETASAT =      0 
   NSTTHETASAT =      0 
   PSTTHETASAT =      0 
   LPRT =      0 
   NPRT =      0 
   PPRT =      0 
   LIIT =      0 
   NIIT =      0 
   PIIT =      0 
   LTII =      0 
   NTII =      0 
   PTII =      0 
   LTGIDL =      0 
   NTGIDL =      0 
   PTGIDL =      0 
   LIGT =      0 
   NIGT =      0 
   PIGT =      0 
   L = 2.4e-08 m
   D =  4e-08 m
   TFIN = 1.5e-08 m
   FPITCH =  6e-08 m
   NF = 1 
   NFIN = 1 
   NGCON = 1 
   ASEO =      0 m^2
   ADEO =      0 m^2
   PSEO =      0 m
   PDEO =      0 m
   ASEJ =      0 m^2
   ADEJ =      0 m^2
   PSEJ =      0 m
   PDEJ =      0 m
   CGSP =      0 F
   CGDP =      0 F
   CDSP =      0 F
   NRS =      0 
   NRD =      0 
   LRSD = 2.4e-08 m
   XL =      0 m
   DELVTRAND =      0 
   U0MULT =      1 
   IDS0MULT =      1 
   Lmin =  1e-08 m
   Lmax = 2.4e-08 m
   NFINmin = 0 
   NFINmax = 1 
   LVSAT1 =      0 
   NVSAT1 =      0 
   PVSAT1 =      0 
   LETAMOB =      0 
   NETAMOB =      0 
   PETAMOB =      0 
   LPCLMG =      0 
   NPCLMG =      0 
   PPCLMG =      0 
   LVASAT =      0 
   NVASAT =      0 
   PVASAT =      0 
   LAIGBACC =      0 
   NAIGBACC =      0 
   PAIGBACC =      0 
   LBIGBACC =      0 
   NBIGBACC =      0 
   PBIGBACC =      0 
   LCIGBACC =      0 
   NCIGBACC =      0 
   PCIGBACC =      0 
   LNIGBACC =      0 
   NNIGBACC =      0 
   PNIGBACC =      0 
 Model Name: nfet 
 BSIM-MG BULK Model(Level72)
   VERSION = 105.03  
   DEVTYPE = 1 
   BULKMOD = 1  
   COREMOD = 0 
   GEOMOD = 1 
   RDSMOD = 1 
   IGCMOD = 1 
   IGBMOD = 1 
   GIDLMOD = 0 
   IIMOD = 0 
   NQSMOD = 0 
   SHMOD = 0 
   RGATEMOD = 0 
   RGEOMOD = 1 
   CGEOMOD = 2 
   CAPMOD = 0 
   LINT =  1e-09 m
   LL =      0 m^(LLN+1)
   LLN =      1 
   DLC =      0 m
   DLBIN =      0 
   LLC =      0 m^(LLN+1)
   EOT = 8.4e-10 m
   TOXP = 1.4e-09 m
   EOTBOX = 1.4e-07 m
   HFIN = 2.8e-08 m
   FECH =      1 
   DELTAW =      0 m
   FECHCV =      1 
   DELTAWCV =      0 m
   NBODY =  5e+23 m^-3
   NSD =  3e+26 m^-3
   PHIG =  4.375 eV
   EPSROX =    3.9 
   EPSRSUB =   11.9 
   EASUB =   4.05 eV
   NI0SUB = 1.1e+16 m^-3
   BG0SUB =   1.12 eV
   NC0SUB = 2.86e+25 m^-3
   NGATE =      0 m^-3
   CIT = 1.3e-05 F/m^2
   CDSC = 0.0132 F/m^2
   CDSCD =  0.007 F/m^2
   CDSCDR =  0.007 
   DVT0 =   0.01 
   DVT1 =   0.69 
   PHIN =   0.05 V
   ETA0 = 0.5063 
   ETA0R = 0.5063 
   DSUB =    0.9 
   K1RSCE =      0 V^1/2
   LPE0 =  5e-09 m
   DVTSHIFT =      0 
   QMFACTOR =      0 
   QMTCENIV =      0 
   QMTCENCV =      0 
   AQMTCEN =      0 
   BQMTCEN = 1.2e-08 
   ETAQM =   0.54 
   QM0 = 0.001143 
   PQM =   0.66 
   QM0ACC =  0.001 
   PQMACC =   0.66 
   VSAT = 8.5e+04 
   AVSAT =      0 
   BVSAT =  1e-07 
   VSAT1 = 8.5e+04 
   AVSAT1 =      0 
   BVSAT1 =  1e-07 
   DELTAVSAT =      1 
   KSATIV =    0.8 
   MEXP =      3 
   AMEXP =      0 
   BMEXP =      1 
   PTWG =      0 
   APTWG =      0 
   BPTWG =  1e-07 
   AT = -0.00156 
   TMEXP =      0 
   PTWGT =  0.004 
   U0 =  0.038 
   ETAMOB =      2 
   UP =      0 
   LPA =      1 
   UA =    0.3 
   AUA =      0 
   BUA =  1e-07 
   EU =    1.8 
   AEU =      0 
   BEU =  1e-07 
   UD =      0 
   AUD =      0 
   BUD =  5e-08 
   UCS =      0 
   UTE =      0 
   UTL = -0.0015 
   UA1 = 0.001032 
   UD1 =      0 
   UCSTE = -0.00478 
   RDSWMIN =      0 
   RDSW =    100 
   ARDSW =      0 
   BRDSW =  1e-07 
   RSWMIN =      0 
   RSW =      0 
   ARSW =      0 
   BRSW =  1e-07 
   RDWMIN =      0 
   RDW =      0 
   ARDW =      0 
   BRDW =  1e-07 
   PRWG =      0 
   WR =      1 
   PRT =  0.001 
   PDIBL1 =    1.3 
   PDIBL2 = 0.0002 
   DROUT =   1.06 
   PVAG =      1 
   PCLM =    0.2 
   APCLM =      0 
   BPCLM =  1e-07 
   PCLMG =      0 
   VASAT =    0.6 
   PCLMCV =  0.013 
   PCLMGCV =      0 
   VASATCV =    0.2 
   RGEXT =      0 ohm
   RGFIN =  0.001 ohm
   RSHS =      0 ohm
   RSHD =      0 ohm
   HEPI =  1e-08 m
   TSILI =  1e-08 m
   RHOC =  4e-12 ohm/m^2
   RHORSD =      1 ohm/m
   RHOEXT =      1 ohm/m
   CRATIO =    0.5 
   DELTAPRSD =      0 m
   SDTERM = 0 
   LSP = 4.8e-09 m
   LDG =  3e-09 m
   EPSRSP =    3.9 
   TGATE =  1e-08 m
   TMASK =      0 m
   ASILIEND =      0 m^2
   ARSDEND =      0 m^2
   PRSDEND =      0 m
   NSDE =  3e+25 m^-3
   RGEOA =      1 
   RGEOB =      0 m^-1
   RGEOC =      0 m^-1
   RGEOD =      0 m^-1
   RGEOE =      0 m^-1
   CGEOA =      1 
   CGEOB =      0 m^-1
   CGEOC =      0 m^-1
   CGEOD =      0 m^-1
   CGEOE =      1 
   AIGBINV = 0.0111 (Fs^2/g)^0.5m^-1
   BIGBINV =   0.03 (Fs^2/g)^0.5m^-1
   CIGBINV =  0.006 V^-1
   EIGBINV =    1.1 V
   NIGBINV =    1.2 
   AIGBACC = 0.0149 
   BIGBACC = 0.000949 
   CIGBACC =  0.075 
   NIGBACC =      3 
   AIGC = 0.0136 (Fs^2/g)^0.5m^-1
   BIGC = 0.00171 (Fs^2/g)^0.5m^-1V^-1
   CIGC =  0.075 V^-1
   NIGC =      1 
   DLCIGS =      0 m
   AIGS = 0.0136 (Fs^2/g)^0.5m^-1
   BIGS = 0.00171 (Fs^2/g)^0.5m^-1V^-1
   CIGS =  0.075 V^-1
   DLCIGD =      0 m
   AIGD = 0.0136 (Fs^2/g)^0.5m^-1
   BIGD = 0.00171 (Fs^2/g)^0.5m^-1V^-1
   CIGD =  0.075 V^-1
   POXEDGE =      1 
   AGIDL = 5.729e-12 ohm^-1
   BGIDL =  3e+08 V/m
   EGIDL =    0.1 V
   AGISL = 5.729e-12 ohm^-1
   BGISL =  3e+08 V/m
   EGISL =    0.1 V
   ALPHA0 =      0 mV^-1
   ALPHA1 =      0 V^-1
   BETA0 =     30 V^-1
   ALPHAII =      0 
   BETAII0 =      0 V^-1
   BETAII1 =      0 
   BETAII2 =    0.1 V
   ESATII =  1e+07 V/m
   LII =  5e-10 V/m
   SII0 =    0.5 V^-1
   SII1 =    0.1 
   SII2 =      0 V
   SIID =      0 V
   EOTACC = 8.4e-10 m
   DELVFBACC =      0 V
   CFS = 2.56e-11 F/m
   CFD = 2.65e-11 F/m
   COVS = 2.5e-11 F/m
   COVD = 2.5e-11 F/m
   CGSO =      0 F/m
   CGDO =      0 F/m
   CGSL =      0 F/m
   CGDL =      0 F/m
   CKAPPAS =    0.6 V
   CKAPPAD =    0.6 V
   CGBO =      0 F/m
   CGBL =      0 F/m
   CKAPPAB =    0.6 V
   CSDESW =      0 F/m
   CJS = 0.0005 F/m^2
   CJD = 0.0005 F/m^2
   CJSWS =  5e-10 F/m
   CJSWD =  5e-10 F/m
   CJSWGS =      0 F/m
   CJSWGD =      0 F/m
   PBS =      1 V
   PBD =      1 V
   PBSWS =      1 V
   PBSWD =      1 V
   PBSWGS =      1 V
   PBSWGD =      1 V
   MJS, =    0.5 
   MJD =    0.5 
   MJSWS =   0.33 
   MJSWD =   0.33 
   MJSWGS =   0.33 
   MJSWGD =   0.33 
   SJS =      0 
   SJD =      0 
   SJSWS =      0 
   SJSWD =      0 
   SJSWGS =      0 
   SJSWGD =      0 
   MJS2 =  0.125 
   MJD2 =  0.125 
   MJSWS2 =   0.33 
   MJSWD2 =   0.33 
   MJSWGS2 =   0.33 
   MJSWGD2 =   0.33 
   JSS = 0.0001 A/m^2
   JSD = 0.0001 A/m^2
   JSWS =      0 A/m
   JSWD =      0 A/m
   JSWGS =      0 A/m
   JSWGD =      0 A/m
   NJS =      1 
   NJD =      1 
   IJTHSFWD =    0.1 A
   IJTHDFWD =    0.1 A
   IJTHSREV =    0.1 A
   IJTHDREV =    0.1 A
   BVS =     10 V
   BVD =     10 V
   XJBVS =      1 
   XJBVD =      1 
   JTSS =      0 A/m^2
   JTSD =      0 A/m^2
   JTSSWS =      0 A/m
   JTSSWD =      0 A/m
   JTSSWGS =      0 A/m
   JTSSWGD =      0 A/m
   JTWEFF =      0 m
   NJTS =     20 
   NJTSD =     20 
   NJTSSW =     20 
   NJTSSWD =     20 
   NJTSSWG =     20 
   NJTSSWGD =     20 
   VTSS =     10 V
   VTSD =     10 V
   VTSSWS =     10 V
   VTSSWD =     10 V
   VTSSWGS =     10 V
   VTSSWGD =     10 V
   LINTIGEN =      0 m
   NTGEN =      1 
   AIGEN =      0 m^-3V^-1
   BIGEN =      0 m^-3V^-3
   XRCRG1 =     12 
   XRCRG2 =      1 
   NSEG = 5 
   EF =      1 
   EM = 4.1e+07 V/m
   NOIA = 6.25e+39 eV^-1s^1-EFm^-3
   NOIB = 3.125e+24 eV^-1s^1-EFm^-1
   NOIC = 8.75e+07 eV^-1s^1-EFm
   NTNOI =      1 
   TNOM =  300.1 K
   TBGASUB = 0.000702 eV/K
   TBGBSUB =   1108 K
   KT1 =      0 V
   KT1L =      0 Vm
   IIT =   -0.5 
   TII =      0 
   TGIDL = -0.0003 K^-1
   IGT =    2.5 
   TCJ =      0 K^-1
   TCJSW =      0 K^-1
   TCJSWG =      0 K^-1
   TPB =      0 K^-1
   TPBSW =      0 K^-1
   TPBSWG =      0 K^-1
   XTIS =      3 
   XTID =      3 
   XTSS =   0.02 
   XTSD =   0.02 
   XTSSWS =   0.02 
   XTSSWD =   0.02 
   XTSSWGS =   0.02 
   XTSSWGD =   0.02 
   TNJTS =      0 
   TNJTSD =      0 
   TNJTSSW =      0 
   TNJTSSWD =      0 
   TNJTSSWG =      0 
   TNJTSSWGD =      0 
   RTH0 =   0.01 ohm
   CTH0 =  1e-05 F
   WTH0 =      0 m
   LNBODY =      0 
   NNBODY =      0 
   PNBODY =      0 
   LPHIG =      0 
   NPHIG =      0 
   PPHIG =      0 
   LNGATE =      0 
   NNGATE =      0 
   PNGATE =      0 
   LCIT =      0 
   NCIT =      0 
   PCIT =      0 
   LCDSC =      0 
   NCDSC =      0 
   PCDSC =      0 
   LCDSCD =      0 
   NCDSCD =      0 
   PCDSCD =      0 
   LCDSCDR =      0 
   NCDSCDR =      0 
   PCDSCDR =      0 
   LDVT0 =      0 
   NDVT0 =      0 
   PDVT0 =      0 
   LDVT1 =      0 
   NDVT1 =      0 
   PDVT1 =      0 
   LPHIN =      0 
   NPHIN =      0 
   PPHIN =      0 
   LETA0 =      0 
   NETA0 =      0 
   PETA0 =      0 
   LETA0R =      0 
   NETA0R =      0 
   PETA0R =      0 
   LDSUB =      0 
   NDSUB =      0 
   PDSUB =      0 
   LK1RSCE =      0 
   NK1RSCE =      0 
   PK1RSCE =      0 
   LLPE0 =      0 
   NLPE0 =      0 
   PLPE0 =      0 
   LQMFACTOR =      0 
   NQMFACTOR =      0 
   PQMFACTOR =      0 
   LQMTCENIV =      0 
   NQMTCENIV =      0 
   PQMTCENIV =      0 
   LQMTCENCV =      0 
   NQMTCENCV =      0 
   PQMTCENCV =      0 
   LVSAT =      0 
   NVSAT =      0 
   PVSAT =      0 
   LKSATIV =      0 
   NKSATIV =      0 
   PKSATIV =      0 
   LMEXP =      0 
   NMEXP =      0 
   PMEXP =      0 
   LPTWG =      0 
   NPTWG =      0 
   PPTWG =      0 
   LTHETASAT =      0 
   NTHETASAT =      0 
   PTHETASAT =      0 
   LU0 =      0 
   NU0 =      0 
   PU0 =      0 
   LUP =      0 
   NUP =      0 
   PUP =      0 
   LUA =      0 
   NUA =      0 
   PUA =      0 
   LEU =      0 
   NEU =      0 
   PEU =      0 
   LUD =      0 
   NUD =      0 
   PUD =      0 
   LUCS =      0 
   NUCS =      0 
   PUCS =      0 
   LPCLM =      0 
   NPCLM =      0 
   PPCLM =      0 
   LPCLMCV =      0 
   NPCLMCV =      0 
   PPCLMCV =      0 
   LRDSW =      0 
   NRDSW =      0 
   PRDSW =      0 
   LRSW =      0 
   NRSW =      0 
   PRSW =      0 
   LRDW =      0 
   NRDW =      0 
   PRDW =      0 
   LPRWG =      0 
   NPRWG =      0 
   PPRWG =      0 
   LWR =      0 
   NWR =      0 
   PWR =      0 
   LPDIBL1 =      0 
   NPDIBL1 =      0 
   PPDIBL1 =      0 
   LPDIBL2 =      0 
   NPDIBL2 =      0 
   PPDIBL2 =      0 
   LDROUT =      0 
   NDROUT =      0 
   PDROUT =      0 
   LPVAG =      0 
   NPVAG =      0 
   PPVAG =      0 
   LAIGBINV =      0 
   NAIGBINV =      0 
   PAIGBINV =      0 
   LBIGBINV =      0 
   NBIGBINV =      0 
   PBIGBINV =      0 
   LCIGBINV =      0 
   NCIGBINV =      0 
   PCIGBINV =      0 
   LEIGBINV =      0 
   NEIGBINV =      0 
   PEIGBINV =      0 
   LNIGBINV =      0 
   NNIGBINV =      0 
   PNIGBINV =      0 
   LAIGC =      0 
   NAIGC =      0 
   PAIGC =      0 
   LBIGC =      0 
   NBIGC =      0 
   PBIGC =      0 
   LCIGC =      0 
   NCIGC =      0 
   PCIGC =      0 
   LNIGC =      0 
   NNIGC =      0 
   PNIGC =      0 
   LAIGS =      0 
   NAIGS =      0 
   PAIGS =      0 
   LBIGS =      0 
   NBIGS =      0 
   PBIGS =      0 
   LCIGS =      0 
   NCIGS =      0 
   PCIGS =      0 
   LAIGD =      0 
   NAIGD =      0 
   PAIGD =      0 
   LBIGD =      0 
   NBIGD =      0 
   PBIGD =      0 
   LCIGD =      0 
   NCIGD =      0 
   PCIGD =      0 
   LPOXEDGE =      0 
   NPOXEDGE =      0 
   PPOXEDGE =      0 
   LAGIDL =      0 
   NAGIDL =      0 
   PAGIDL =      0 
   LBGIDL =      0 
   NBGIDL =      0 
   PBGIDL =      0 
   LEGIDL =      0 
   NEGIDL =      0 
   PEGIDL =      0 
   LAGISL =      0 
   NAGISL =      0 
   PAGISL =      0 
   LBGISL =      0 
   NBGISL =      0 
   PBGISL =      0 
   LEGISL =      0 
   NEGISL =      0 
   PEGISL =      0 
   LALPHA0 =      0 
   NALPHA0 =      0 
   PALPHA0 =      0 
   LALPHA1 =      0 
   NALPHA1 =      0 
   PALPHA1 =      0 
   LBETA0 =      0 
   NBETA0 =      0 
   PBETA0 =      0 
   LALPHAII =      0 
   NALPHAII =      0 
   PALPHAII =      0 
   LBETAII0 =      0 
   NBETAII0 =      0 
   PBETAII0 =      0 
   LBETAII1 =      0 
   NBETAII1 =      0 
   PBETAII1 =      0 
   LBETAII2 =      0 
   NBETAII2 =      0 
   PBETAII2 =      0 
   LESATII =      0 
   NESATII =      0 
   PESATII =      0 
   LLII =      0 
   NLII =      0 
   PLII =      0 
   LSII0 =      0 
   NSII0 =      0 
   PSII0 =      0 
   LSII1 =      0 
   NSII1 =      0 
   PSII1 =      0 
   LSII2 =      0 
   NSII2 =      0 
   PSII2 =      0 
   LSIID =      0 
   NSIID =      0 
   PSIID =      0 
   LCFS =      0 
   NCFS =      0 
   PCFS =      0 
   LCFD =      0 
   NCFD =      0 
   PCFD =      0 
   LCOVS =      0 
   NCOVS =      0 
   PCOVS =      0 
   LCOVD =      0 
   NCOVD =      0 
   PCOVD =      0 
   LCGSL =      0 
   NCGSL =      0 
   PCGSL =      0 
   LCGDL =      0 
   NCGDL =      0 
   PCGDL =      0 
   LCKAPPAS =      0 
   NCKAPPAS =      0 
   PCKAPPAS =      0 
   LCKAPPAD =      0 
   NCKAPPAD =      0 
   PCKAPPAD =      0 
   LCGBL =      0 
   NCGBL =      0 
   PCGBL =      0 
   LCKAPPAB =      0 
   NCKAPPAB =      0 
   PCKAPPAB =      0 
   LNTGEN =      0 
   NNTGEN =      0 
   PNTGEN =      0 
   LAIGEN =      0 
   NAIGEN =      0 
   PAIGEN =      0 
   LBIGEN =      0 
   NBIGEN =      0 
   PBIGEN =      0 
   LXRCRG1 =      0 
   NXRCRG1 =      0 
   PXRCRG1 =      0 
   LXRCRG2 =      0 
   NXRCRG2 =      0 
   PXRCRG2 =      0 
   LINTNOI =      0 
   NINTNOI =      0 
   PINTNOI =      0 
   LUTE =      0 
   NUTE =      0 
   PUTE =      0 
   LUTL =      0 
   NUTL =      0 
   PUTL =      0 
   LUA1 =      0 
   NUA1 =      0 
   PUA1 =      0 
   LUD1 =      0 
   NUD1 =      0 
   PUD1 =      0 
   LUCSTE =      0 
   NUCSTE =      0 
   PUCSTE =      0 
   LPTWGT =      0 
   NPTWGT =      0 
   PPTWGT =      0 
   LAT =      0 
   NAT =      0 
   PAT =      0 
   LSTTHETASAT =      0 
   NSTTHETASAT =      0 
   PSTTHETASAT =      0 
   LPRT =      0 
   NPRT =      0 
   PPRT =      0 
   LIIT =      0 
   NIIT =      0 
   PIIT =      0 
   LTII =      0 
   NTII =      0 
   PTII =      0 
   LTGIDL =      0 
   NTGIDL =      0 
   PTGIDL =      0 
   LIGT =      0 
   NIGT =      0 
   PIGT =      0 
   L = 2.4e-08 m
   D =  4e-08 m
   TFIN = 1.5e-08 m
   FPITCH =  6e-08 m
   NF = 1 
   NFIN = 1 
   NGCON = 1 
   ASEO =      0 m^2
   ADEO =      0 m^2
   PSEO =      0 m
   PDEO =      0 m
   ASEJ =      0 m^2
   ADEJ =      0 m^2
   PSEJ =      0 m
   PDEJ =      0 m
   CGSP =      0 F
   CGDP =      0 F
   CDSP =      0 F
   NRS =      0 
   NRD =      0 
   LRSD = 2.4e-08 m
   XL =      0 m
   DELVTRAND =      0 
   U0MULT =      1 
   IDS0MULT =      1 
   Lmin =  1e-08 m
   Lmax = 2.4e-08 m
   NFINmin = 0 
   NFINmax = 1 
   LVSAT1 =      0 
   NVSAT1 =      0 
   PVSAT1 =      0 
   LETAMOB =      0 
   NETAMOB =      0 
   PETAMOB =      0 
   LPCLMG =      0 
   NPCLMG =      0 
   PPCLMG =      0 
   LVASAT =      0 
   NVASAT =      0 
   PVASAT =      0 
   LAIGBACC =      0 
   NAIGBACC =      0 
   PAIGBACC =      0 
   LBIGBACC =      0 
   NBIGBACC =      0 
   PBIGBACC =      0 
   LCIGBACC =      0 
   NCIGBACC =      0 
   PCIGBACC =      0 
   LNIGBACC =      0 
   NNIGBACC =      0 
   PNIGBACC =      0 
  **info** (ptm20hp.sp:15) DC voltage reset to initial transient source value              in source        0:vin_0               new dc=  0.9000D+00
  
      
 **info** set option symb=1 internally to help for convergence.
 *****************************************************************
 ******  option summary
 ******
 runlvl  = 3         bypass  = 2         
  Opening plot unit= 15
 file=ptm20hp.pa0                                                              

1****** HSPICE -- F-2011.09-SP2 64-BIT (Feb 27 2012) linux ******               
 ******  
 $ netlist of inverter

  ******  operating point information tnom=  25.000 temp=  25.000 *****
 ***** operating point status is voltage   simulation time is     0.     
     node    =voltage       node    =voltage       node    =voltage

 + 0:inb_0   = 900.0000m  0:inb_1   = 900.0000m  0:outb_00 = 899.5634m
 + 0:outb_10 = 899.5634m  0:outin_00= 425.5240u  0:outin_01= 425.5240u
 + 0:outin_10= 899.5633m  0:outin_11= 899.5633m  0:outin_20= 430.7096u
 + 0:outin_21= 430.7096u  0:vdd     = 900.0000m

 ******  
 $ netlist of inverter

  ******  transient analysis tnom=  25.000 temp=  25.000 *****
 inv_avg_power00= 447.2106n  from=   0.          to=   4.0000n
 peakpower00=  26.3750u    at=  33.2927p
             from=   0.         to=   4.0000n
 inv_avg_power10= 340.8270n  from=   0.          to=   4.0000n
 peakpower10=  33.0952u    at=   3.0847n
             from=   0.         to=   4.0000n
 inv_avg_power01= 237.9750n  from=   0.          to=   4.0000n
 peakpower01=  26.3750u    at=  33.2927p
             from=   0.         to=   4.0000n
 inv_avg_power11= 191.4710n  from=   0.          to=   4.0000n
 peakpower11=  33.4256u    at=   2.0839n
             from=   0.         to=   4.0000n
 model_uut_grid_avg_power=   1.2175u  from=   0.          to=   4.0000n
 model_uut_grid_max_power= 114.1311u    at=  33.2927p
             from=   0.         to=   4.0000n
 source_power=   2.3754u  from=   0.          to=   4.0000n
 trf_delay_001=   3.7421p  targ=  35.0357p   trig=  31.2935p
 tfr_delay_001=   5.4775p  targ=   1.0834n   trig=   1.0779n
 trf_delay_002=   4.6492p  targ=   2.0351n   trig=   2.0305n
 tfr_delay_002=   5.5790p  targ=   3.0850n   trig=   3.0794n
 trf_delay_101=   2.9537p  targ=   1.0863n   trig=   1.0834n
 tfr_delay_101=   3.3801p  targ=  38.4158p   trig=  35.0357p
 trf_delay_102=   2.8075p  targ=   3.0878n   trig=   3.0850n
 tfr_delay_102=   3.4209p  targ=   2.0385n   trig=   2.0351n
 trf_delay_011=   3.7421p  targ=  35.0357p   trig=  31.2935p
 tfr_delay_011=   5.5088p  targ=   2.0847n   trig=   2.0792n
 trf_delay_111=   3.0271p  targ=   2.0877n   trig=   2.0847n
 tfr_delay_111=   3.3801p  targ=  38.4158p   trig=  35.0357p
x

        time    voltage      voltage    
                 outin_00     outin_10  
    0.          425.5240u    899.5633m  
   10.00000p     10.8560m    901.1137m  
   20.00000p    116.9846m    885.8968m  
   30.00000p    400.3000m    770.8031m  
   40.00000p    788.0396m    111.2092m  
   50.00000p    884.1289m      5.1232m  
   60.00000p    899.5775m    519.7241u  
   70.00000p    899.5735m    434.9022u  
   80.00000p    899.5709m    431.8974u  
   90.00000p    899.5571m    420.3611u  
  100.00000p    899.5620m    424.9014u  
  110.00000p    899.5669m    429.4417u  
  120.00000p    899.5718m    433.9819u  
  130.00000p    899.5768m    438.5222u  
  140.00000p    899.5791m    440.6452u  
  150.00000p    899.5773m    438.9870u  
  160.00000p    899.5756m    437.3288u  
  170.00000p    899.5738m    435.6706u  
  180.00000p    899.5721m    434.0124u  
  190.00000p    899.5703m    432.3542u  
  200.00000p    899.5686m    430.6960u  
  210.00000p    899.5668m    429.0378u  
  220.00000p    899.5651m    427.3796u  
  230.00000p    899.5633m    425.7214u  
  240.00000p    899.5616m    424.0632u  
  250.00000p    899.5598m    422.4050u  
  260.00000p    899.5581m    420.7468u  
  270.00000p    899.5584m    421.0371u  
  280.00000p    899.5594m    422.0637u  
  290.00000p    899.5605m    423.0904u  
  300.00000p    899.5616m    424.1170u  
  310.00000p    899.5627m    425.1436u  
  320.00000p    899.5637m    426.1703u  
  330.00000p    899.5648m    427.1969u  
  340.00000p    899.5659m    428.2235u  
  350.00000p    899.5669m    429.2502u  
  360.00000p    899.5680m    430.2768u  
  370.00000p    899.5691m    431.3034u  
  380.00000p    899.5702m    432.3301u  
  390.00000p    899.5712m    433.3567u  
  400.00000p    899.5723m    434.3834u  
  410.00000p    899.5734m    435.4100u  
  420.00000p    899.5744m    436.4366u  
  430.00000p    899.5755m    437.4633u  
  440.00000p    899.5766m    438.4899u  
  450.00000p    899.5777m    439.5165u  
  460.00000p    899.5787m    440.5432u  
  470.00000p    899.5783m    440.0925u  
  480.00000p    899.5772m    439.0836u  
  490.00000p    899.5762m    438.0747u  
  500.00000p    899.5751m    437.0658u  
  510.00000p    899.5741m    436.0569u  
  520.00000p    899.5730m    435.0480u  
  530.00000p    899.5720m    434.0391u  
  540.00000p    899.5710m    433.0301u  
  550.00000p    899.5699m    432.0212u  
  560.00000p    899.5689m    431.0123u  
  570.00000p    899.5678m    430.0034u  
  580.00000p    899.5668m    428.9945u  
  590.00000p    899.5657m    427.9856u  
  600.00000p    899.5647m    426.9767u  
  610.00000p    899.5636m    425.9678u  
  620.00000p    899.5626m    424.9589u  
  630.00000p    899.5615m    423.9500u  
  640.00000p    899.5605m    422.9411u  
  650.00000p    899.5595m    421.9322u  
  660.00000p    899.5584m    420.9232u  
  670.00000p    899.5589m    421.3661u  
  680.00000p    899.5599m    422.3576u  
  690.00000p    899.5609m    423.3490u  
  700.00000p    899.5619m    424.3405u  
  710.00000p    899.5629m    425.3320u  
  720.00000p    899.5640m    426.3234u  
  730.00000p    899.5650m    427.3149u  
  740.00000p    899.5660m    428.3063u  
  750.00000p    899.5670m    429.2978u  
  760.00000p    899.5680m    430.2893u  
  770.00000p    899.5691m    431.2807u  
  780.00000p    899.5701m    432.2722u  
  790.00000p    899.5711m    433.2637u  
  800.00000p    899.5721m    434.2551u  
  810.00000p    899.5731m    435.2466u  
  820.00000p    899.5741m    436.2380u  
  830.00000p    899.5752m    437.2295u  
  840.00000p    899.5762m    438.2210u  
  850.00000p    899.5772m    439.2124u  
  860.00000p    899.5782m    440.2039u  
  870.00000p    899.5777m    439.7210u  
  880.00000p    899.5767m    438.6810u  
  890.00000p    899.5756m    437.6410u  
  900.00000p    899.5746m    436.6011u  
  910.00000p    899.5735m    435.5611u  
  920.00000p    899.5724m    434.5211u  
  930.00000p    899.5714m    433.4811u  
  940.00000p    899.5703m    432.4411u  
  950.00000p    899.5693m    431.4011u  
  960.00000p    899.5682m    430.3611u  
  970.00000p    899.5671m    429.3211u  
  980.00000p    899.5661m    428.2811u  
  990.00000p    899.5650m    427.2411u  
    1.00000n    899.5640m    426.2011u  
    1.01000n    899.5629m    425.1611u  
    1.02000n    899.5618m    424.1211u  
    1.03000n    899.5608m    423.0811u  
    1.04000n    899.5597m    422.0411u  
    1.05000n    899.5587m    421.0011u  
    1.06000n    889.5119m     -1.0678m  
    1.07000n    730.9803m     75.6836m  
    1.08000n    373.8916m    293.1141m  
    1.09000n     69.3811m    788.5643m  
    1.10000n     11.9853m    895.9843m  
    1.11000n    582.1117u    899.2894m  
    1.12000n    443.6582u    899.5177m  
    1.13000n    426.0545u    899.5672m  
    1.14000n    418.8472u    899.5839m  
    1.15000n    424.2397u    899.5652m  
    1.16000n    429.6321u    899.5464m  
    1.17000n    430.6659u    899.5434m  
    1.18000n    429.0865u    899.5498m  
    1.19000n    427.5072u    899.5563m  
    1.20000n    425.9278u    899.5627m  
    1.21000n    424.3485u    899.5692m  
    1.22000n    422.7691u    899.5756m  
    1.23000n    421.1897u    899.5821m  
    1.24000n    420.7786u    899.5836m  
    1.25000n    421.3085u    899.5813m  
    1.26000n    421.8384u    899.5790m  
    1.27000n    422.3684u    899.5767m  
    1.28000n    422.8983u    899.5744m  
    1.29000n    423.4283u    899.5720m  
    1.30000n    423.9582u    899.5697m  
    1.31000n    424.4881u    899.5674m  
    1.32000n    425.0181u    899.5651m  
    1.33000n    425.5480u    899.5628m  
    1.34000n    426.0780u    899.5604m  
    1.35000n    426.6079u    899.5581m  
    1.36000n    427.1378u    899.5558m  
    1.37000n    427.6678u    899.5535m  
    1.38000n    428.1977u    899.5511m  
    1.39000n    428.7276u    899.5488m  
    1.40000n    429.2576u    899.5465m  
    1.41000n    429.7875u    899.5442m  
    1.42000n    430.0690u    899.5430m  
    1.43000n    429.6196u    899.5450m  
    1.44000n    429.1702u    899.5471m  
    1.45000n    428.7207u    899.5491m  
    1.46000n    428.2713u    899.5512m  
    1.47000n    427.8219u    899.5532m  
    1.48000n    427.3724u    899.5553m  
    1.49000n    426.9230u    899.5573m  
    1.50000n    426.4735u    899.5594m  
    1.51000n    426.0241u    899.5614m  
    1.52000n    425.5747u    899.5634m  
    1.53000n    425.1252u    899.5655m  
    1.54000n    424.6758u    899.5675m  
    1.55000n    424.2264u    899.5696m  
    1.56000n    423.7769u    899.5716m  
    1.57000n    423.3275u    899.5737m  
    1.58000n    422.8780u    899.5757m  
    1.59000n    422.4286u    899.5778m  
    1.60000n    421.9792u    899.5798m  
    1.61000n    421.5297u    899.5819m  
    1.62000n    421.3002u    899.5829m  
    1.63000n    421.7176u    899.5809m  
    1.64000n    422.1350u    899.5790m  
    1.65000n    422.5524u    899.5770m  
    1.66000n    422.9698u    899.5750m  
    1.67000n    423.3872u    899.5730m  
    1.68000n    423.8047u    899.5710m  
    1.69000n    424.2221u    899.5691m  
    1.70000n    424.6395u    899.5671m  
    1.71000n    425.0569u    899.5651m  
    1.72000n    425.4743u    899.5631m  
    1.73000n    425.8917u    899.5612m  
    1.74000n    426.3091u    899.5592m  
    1.75000n    426.7266u    899.5572m  
    1.76000n    427.1440u    899.5552m  
    1.77000n    427.5614u    899.5532m  
    1.78000n    427.9788u    899.5513m  
    1.79000n    428.3962u    899.5493m  
    1.80000n    428.8136u    899.5473m  
    1.81000n    429.2311u    899.5453m  
    1.82000n    429.4354u    899.5444m  
    1.83000n    429.0128u    899.5465m  
    1.84000n    428.5902u    899.5486m  
    1.85000n    428.1675u    899.5507m  
    1.86000n    427.7449u    899.5527m  
    1.87000n    427.3223u    899.5548m  
    1.88000n    426.8997u    899.5569m  
    1.89000n    426.4771u    899.5590m  
    1.90000n    426.0545u    899.5611m  
    1.91000n    425.6319u    899.5632m  
    1.92000n    425.2092u    899.5653m  
    1.93000n    424.7866u    899.5674m  
    1.94000n    424.3640u    899.5695m  
    1.95000n    423.9414u    899.5716m  
    1.96000n    423.5188u    899.5736m  
    1.97000n    423.0962u    899.5757m  
    1.98000n    422.6735u    899.5778m  
    1.99000n    422.2509u    899.5799m  
    2.00000n    421.8283u    899.5820m  
    2.01000n      9.5504m    901.0330m  
    2.02000n    139.2912m    868.0789m  
    2.03000n    434.1954m    745.7139m  
    2.04000n    784.0601m    127.5859m  
    2.05000n    883.9953m      5.2783m  
    2.06000n    899.4557m    530.2240u  
    2.07000n    899.5924m    449.2187u  
    2.08000n    899.5569m    417.2643u  
    2.09000n    899.5695m    431.8803u  
    2.10000n    899.5685m    430.6466u  
    2.11000n    899.5684m    430.6479u  
    2.12000n    899.5684m    430.6479u  
    2.13000n    899.5684m    430.6480u  
    2.14000n    899.5684m    430.6480u  
    2.15000n    899.5684m    430.6480u  
    2.16000n    899.5684m    430.6479u  
    2.17000n    899.5684m    430.6479u  
    2.18000n    899.5684m    430.6480u  
    2.19000n    899.5684m    430.6480u  
    2.20000n    899.5684m    430.6480u  
    2.21000n    899.5684m    430.6480u  
    2.22000n    899.5684m    430.6480u  
    2.23000n    899.5684m    430.6480u  
    2.24000n    899.5684m    430.6480u  
    2.25000n    899.5684m    430.6480u  
    2.26000n    899.5684m    430.6480u  
    2.27000n    899.5684m    430.6480u  
    2.28000n    899.5684m    430.6480u  
    2.29000n    899.5684m    430.6480u  
    2.30000n    899.5684m    430.6480u  
    2.31000n    899.5684m    430.6480u  
    2.32000n    899.5684m    430.6480u  
    2.33000n    899.5684m    430.6480u  
    2.34000n    899.5684m    430.6480u  
    2.35000n    899.5684m    430.6480u  
    2.36000n    899.5684m    430.6479u  
    2.37000n    899.5684m    430.6479u  
    2.38000n    899.5684m    430.6479u  
    2.39000n    899.5684m    430.6479u  
    2.40000n    899.5684m    430.6479u  
    2.41000n    899.5684m    430.6479u  
    2.42000n    899.5684m    430.6479u  
    2.43000n    899.5684m    430.6479u  
    2.44000n    899.5684m    430.6480u  
    2.45000n    899.5684m    430.6480u  
    2.46000n    899.5684m    430.6480u  
    2.47000n    899.5684m    430.6480u  
    2.48000n    899.5684m    430.6480u  
    2.49000n    899.5684m    430.6480u  
    2.50000n    899.5684m    430.6480u  
    2.51000n    899.5684m    430.6480u  
    2.52000n    899.5684m    430.6480u  
    2.53000n    899.5684m    430.6480u  
    2.54000n    899.5684m    430.6480u  
    2.55000n    899.5684m    430.6480u  
    2.56000n    899.5684m    430.6480u  
    2.57000n    899.5684m    430.6480u  
    2.58000n    899.5684m    430.6480u  
    2.59000n    899.5684m    430.6480u  
    2.60000n    899.5684m    430.6480u  
    2.61000n    899.5684m    430.6480u  
    2.62000n    899.5684m    430.6480u  
    2.63000n    899.5684m    430.6480u  
    2.64000n    899.5684m    430.6480u  
    2.65000n    899.5684m    430.6480u  
    2.66000n    899.5684m    430.6480u  
    2.67000n    899.5684m    430.6480u  
    2.68000n    899.5684m    430.6480u  
    2.69000n    899.5684m    430.6480u  
    2.70000n    899.5684m    430.6480u  
    2.71000n    899.5684m    430.6480u  
    2.72000n    899.5684m    430.6480u  
    2.73000n    899.5684m    430.6480u  
    2.74000n    899.5684m    430.6480u  
    2.75000n    899.5684m    430.6479u  
    2.76000n    899.5684m    430.6479u  
    2.77000n    899.5684m    430.6479u  
    2.78000n    899.5684m    430.6479u  
    2.79000n    899.5684m    430.6479u  
    2.80000n    899.5684m    430.6479u  
    2.81000n    899.5684m    430.6479u  
    2.82000n    899.5684m    430.6479u  
    2.83000n    899.5684m    430.6479u  
    2.84000n    899.5684m    430.6480u  
    2.85000n    899.5684m    430.6480u  
    2.86000n    899.5684m    430.6480u  
    2.87000n    899.5684m    430.6480u  
    2.88000n    899.5684m    430.6480u  
    2.89000n    899.5684m    430.6480u  
    2.90000n    899.5684m    430.6480u  
    2.91000n    899.5684m    430.6480u  
    2.92000n    899.5684m    430.6480u  
    2.93000n    899.5684m    430.6480u  
    2.94000n    899.5684m    430.6480u  
    2.95000n    899.5684m    430.6480u  
    2.96000n    899.5684m    430.6480u  
    2.97000n    899.5684m    430.6480u  
    2.98000n    899.5684m    430.6480u  
    2.99000n    899.5684m    430.6480u  
    3.00000n    899.5684m    430.6480u  
    3.01000n    899.5684m    430.6480u  
    3.02000n    899.5684m    430.6480u  
    3.03000n    899.5684m    430.6480u  
    3.04000n    899.5684m    430.6479u  
    3.05000n    899.5684m    430.6479u  
    3.06000n    891.2353m   -843.5718u  
    3.07000n    801.2268m      2.1822m  
    3.08000n    423.4873m    201.9009m  
    3.09000n     73.1605m    769.6955m  
    3.10000n     12.5116m    894.6571m  
    3.11000n    348.4879u    899.6011m  
    3.12000n    446.3459u    899.5506m  
    3.13000n    408.5328u    899.5718m  
    3.14000n    423.3669u    899.5648m  
    3.15000n    438.2010u    899.5577m  
    3.16000n    435.7810u    899.5587m  
    3.17000n    431.7035u    899.5605m  
    3.18000n    427.6260u    899.5622m  
    3.19000n    423.5485u    899.5640m  
    3.20000n    419.4710u    899.5658m  
    3.21000n    415.3935u    899.5675m  
    3.22000n    413.5561u    899.5683m  
    3.23000n    415.0904u    899.5677m  
    3.24000n    416.6247u    899.5671m  
    3.25000n    418.1589u    899.5664m  
    3.26000n    419.6932u    899.5658m  
    3.27000n    421.2274u    899.5651m  
    3.28000n    422.7617u    899.5645m  
    3.29000n    424.2960u    899.5638m  
    3.30000n    425.8302u    899.5632m  
    3.31000n    427.3645u    899.5626m  
    3.32000n    428.8988u    899.5619m  
    3.33000n    430.4330u    899.5613m  
    3.34000n    431.9673u    899.5606m  
    3.35000n    433.5016u    899.5600m  
    3.36000n    435.0358u    899.5594m  
    3.37000n    436.5701u    899.5587m  
    3.38000n    437.1765u    899.5585m  
    3.39000n    435.9909u    899.5589m  
    3.40000n    434.8053u    899.5594m  
    3.41000n    433.6197u    899.5599m  
    3.42000n    432.4342u    899.5604m  
    3.43000n    431.2486u    899.5609m  
    3.44000n    430.0630u    899.5614m  
    3.45000n    428.8775u    899.5619m  
    3.46000n    427.6919u    899.5624m  
    3.47000n    426.5063u    899.5628m  
    3.48000n    425.3207u    899.5633m  
    3.49000n    424.1352u    899.5638m  
    3.50000n    422.9496u    899.5643m  
    3.51000n    421.7640u    899.5648m  
    3.52000n    420.5784u    899.5653m  
    3.53000n    419.3929u    899.5658m  
    3.54000n    418.2073u    899.5663m  
    3.55000n    417.0217u    899.5668m  
    3.56000n    415.8361u    899.5672m  
    3.57000n    414.6506u    899.5677m  
    3.58000n    414.2604u    899.5679m  
    3.59000n    415.4064u    899.5674m  
    3.60000n    416.5525u    899.5670m  
    3.61000n    417.6985u    899.5665m  
    3.62000n    418.8445u    899.5660m  
    3.63000n    419.9905u    899.5656m  
    3.64000n    421.1366u    899.5651m  
    3.65000n    422.2826u    899.5646m  
    3.66000n    423.4286u    899.5642m  
    3.67000n    424.5746u    899.5637m  
    3.68000n    425.7207u    899.5632m  
    3.69000n    426.8667u    899.5628m  
    3.70000n    428.0127u    899.5623m  
    3.71000n    429.1587u    899.5618m  
    3.72000n    430.3048u    899.5614m  
    3.73000n    431.4508u    899.5609m  
    3.74000n    432.5968u    899.5605m  
    3.75000n    433.7428u    899.5600m  
    3.76000n    434.8889u    899.5595m  
    3.77000n    436.0349u    899.5591m  
    3.78000n    436.4120u    899.5589m  
    3.79000n    435.3041u    899.5593m  
    3.80000n    434.1962u    899.5598m  
    3.81000n    433.0884u    899.5602m  
    3.82000n    431.9805u    899.5607m  
    3.83000n    430.8726u    899.5611m  
    3.84000n    429.7647u    899.5616m  
    3.85000n    428.6569u    899.5620m  
    3.86000n    427.5490u    899.5624m  
    3.87000n    426.4411u    899.5629m  
    3.88000n    425.3332u    899.5633m  
    3.89000n    424.2254u    899.5638m  
    3.90000n    423.1175u    899.5642m  
    3.91000n    422.0096u    899.5647m  
    3.92000n    420.9018u    899.5651m  
    3.93000n    419.7939u    899.5655m  
    3.94000n    418.6860u    899.5660m  
    3.95000n    417.5781u    899.5664m  
    3.96000n    416.4703u    899.5669m  
    3.97000n    415.3624u    899.5673m  
    3.98000n    417.4102u    899.5666m  
    3.99000n    425.5524u    899.5635m  
    4.00000n    433.6946u    899.5605m  
y
x

        time    voltage      voltage    
                 outin_10     outin_20  
    0.          899.5633m    430.7096u  
   10.00000p    901.1137m    600.8204u  
   20.00000p    885.8968m   -109.4400u  
   30.00000p    770.8031m     26.8687m  
   40.00000p    111.2092m    593.7465m  
   50.00000p      5.1232m    893.6732m  
   60.00000p    519.7241u    899.4269m  
   70.00000p    434.9022u    899.5667m  
   80.00000p    431.8974u    899.5625m  
   90.00000p    420.3611u    899.5609m  
  100.00000p    424.9014u    899.5620m  
  110.00000p    429.4417u    899.5631m  
  120.00000p    433.9819u    899.5642m  
  130.00000p    438.5222u    899.5653m  
  140.00000p    440.6452u    899.5659m  
  150.00000p    438.9870u    899.5654m  
  160.00000p    437.3288u    899.5650m  
  170.00000p    435.6706u    899.5645m  
  180.00000p    434.0124u    899.5641m  
  190.00000p    432.3542u    899.5636m  
  200.00000p    430.6960u    899.5632m  
  210.00000p    429.0378u    899.5627m  
  220.00000p    427.3796u    899.5623m  
  230.00000p    425.7214u    899.5618m  
  240.00000p    424.0632u    899.5614m  
  250.00000p    422.4050u    899.5609m  
[...]
    3.64000n    425.5240u    899.5633m  
    3.65000n    425.5240u    899.5633m  
    3.66000n    425.5240u    899.5633m  
    3.67000n    425.5240u    899.5633m  
    3.68000n    425.5240u    899.5633m  
    3.69000n    425.5240u    899.5633m  
    3.70000n    425.5240u    899.5633m  
    3.71000n    425.5240u    899.5633m  
    3.72000n    425.5240u    899.5633m  
    3.73000n    425.5240u    899.5633m  
    3.74000n    425.5240u    899.5633m  
    3.75000n    425.5240u    899.5633m  
    3.76000n    425.5240u    899.5633m  
    3.77000n    425.5240u    899.5633m  
    3.78000n    425.5240u    899.5633m  
    3.79000n    425.5240u    899.5633m  
    3.80000n    425.5240u    899.5633m  
    3.81000n    425.5240u    899.5633m  
    3.82000n    425.5240u    899.5633m  
    3.83000n    425.5240u    899.5633m  
    3.84000n    425.5240u    899.5633m  
    3.85000n    425.5240u    899.5633m  
    3.86000n    425.5240u    899.5633m  
    3.87000n    425.5240u    899.5633m  
    3.88000n    425.5240u    899.5633m  
    3.89000n    425.5240u    899.5633m  
    3.90000n    425.5240u    899.5633m  
    3.91000n    425.5240u    899.5633m  
    3.92000n    425.5240u    899.5633m  
    3.93000n    425.5240u    899.5633m  
    3.94000n    425.5240u    899.5633m  
    3.95000n    425.5240u    899.5633m  
    3.96000n    425.5240u    899.5633m  
    3.97000n    425.5240u    899.5633m  
    3.98000n    425.5240u    899.5633m  
    3.99000n    425.5240u    899.5633m  
    4.00000n    425.5240u    899.5633m  
y
x

        time    voltage      voltage    
                 outin_11     outin_21  
    0.          899.5633m    430.7096u  
   10.00000p    901.1137m    600.8204u  
   20.00000p    885.8968m   -109.4400u  
   30.00000p    770.8031m     26.8687m  
   40.00000p    111.2092m    593.7465m  
   50.00000p      5.1232m    893.6732m  
   60.00000p    519.7241u    899.4269m  
   70.00000p    434.9022u    899.5667m  
   80.00000p    431.8974u    899.5625m  
   90.00000p    420.3611u    899.5609m  
  100.00000p    424.9014u    899.5620m  
  110.00000p    429.4417u    899.5631m  
  120.00000p    433.9819u    899.5642m  
  130.00000p    438.5222u    899.5653m  
  140.00000p    440.6452u    899.5659m  
  150.00000p    438.9870u    899.5654m  
  160.00000p    437.3288u    899.5650m  
  170.00000p    435.6706u    899.5645m  
  180.00000p    434.0124u    899.5641m  
  190.00000p    432.3542u    899.5636m  
  200.00000p    430.6960u    899.5632m  
  210.00000p    429.0378u    899.5627m  
  220.00000p    427.3796u    899.5623m  
  230.00000p    425.7214u    899.5618m  
  240.00000p    424.0632u    899.5614m  
  250.00000p    422.4050u    899.5609m  
  260.00000p    420.7468u    899.5605m  
  270.00000p    421.0371u    899.5605m  
  280.00000p    422.0637u    899.5608m  
  290.00000p    423.0904u    899.5611m  
  300.00000p    424.1170u    899.5614m  
  310.00000p    425.1436u    899.5617m  
  320.00000p    426.1703u    899.5620m  
  330.00000p    427.1969u    899.5623m  
  340.00000p    428.2235u    899.5626m  
  350.00000p    429.2502u    899.5629m  
  360.00000p    430.2768u    899.5632m  
  370.00000p    431.3034u    899.5634m  
  380.00000p    432.3301u    899.5637m  
  390.00000p    433.3567u    899.5640m  
  400.00000p    434.3834u    899.5643m  
  410.00000p    435.4100u    899.5646m  
  420.00000p    436.4366u    899.5649m  
  430.00000p    437.4633u    899.5652m  
  440.00000p    438.4899u    899.5655m  
  450.00000p    439.5165u    899.5658m  
  460.00000p    440.5432u    899.5661m  
  470.00000p    440.0925u    899.5659m  
  480.00000p    439.0836u    899.5656m  
  490.00000p    438.0747u    899.5653m  
  500.00000p    437.0658u    899.5650m  
  510.00000p    436.0569u    899.5647m  
  520.00000p    435.0480u    899.5645m  
  530.00000p    434.0391u    899.5642m  
  540.00000p    433.0301u    899.5639m  
  550.00000p    432.0212u    899.5636m  
  560.00000p    431.0123u    899.5633m  
  570.00000p    430.0034u    899.5630m  
  580.00000p    428.9945u    899.5627m  
  590.00000p    427.9856u    899.5624m  
  600.00000p    426.9767u    899.5621m  
  610.00000p    425.9678u    899.5618m  
  620.00000p    424.9589u    899.5615m  
  630.00000p    423.9500u    899.5612m  
  640.00000p    422.9411u    899.5609m  
  650.00000p    421.9322u    899.5606m  
  660.00000p    420.9232u    899.5603m  
  670.00000p    421.3661u    899.5605m  
  680.00000p    422.3576u    899.5608m  
  690.00000p    423.3490u    899.5611m  
  700.00000p    424.3405u    899.5614m  
  710.00000p    425.3320u    899.5617m  
  720.00000p    426.3234u    899.5620m  
  730.00000p    427.3149u    899.5623m  
  740.00000p    428.3063u    899.5626m  
  750.00000p    429.2978u    899.5628m  
  760.00000p    430.2893u    899.5631m  
  770.00000p    431.2807u    899.5634m  
  780.00000p    432.2722u    899.5637m  
  790.00000p    433.2637u    899.5640m  
  800.00000p    434.2551u    899.5643m  
  810.00000p    435.2466u    899.5646m  
  820.00000p    436.2380u    899.5649m  
  830.00000p    437.2295u    899.5652m  
  840.00000p    438.2210u    899.5655m  
  850.00000p    439.2124u    899.5658m  
  860.00000p    440.2039u    899.5661m  
  870.00000p    439.7210u    899.5660m  
  880.00000p    438.6810u    899.5656m  
  890.00000p    437.6410u    899.5653m  
  900.00000p    436.6011u    899.5650m  
  910.00000p    435.5611u    899.5647m  
  920.00000p    434.5211u    899.5644m  
  930.00000p    433.4811u    899.5640m  
  940.00000p    432.4411u    899.5637m  
  950.00000p    431.4011u    899.5634m  
  960.00000p    430.3611u    899.5631m  
  970.00000p    429.3211u    899.5628m  
  980.00000p    428.2811u    899.5624m  
  990.00000p    427.2411u    899.5621m  
    1.00000n    426.2011u    899.5618m  
    1.01000n    425.1611u    899.5615m  
    1.02000n    424.1211u    899.5612m  
    1.03000n    423.0811u    899.5608m  
    1.04000n    422.0411u    899.5605m  
    1.05000n    421.0011u    899.5602m  
    1.06000n    430.6792u    899.5634m  
    1.07000n    431.9649u    899.5634m  
    1.08000n    430.1699u    899.5631m  
    1.09000n    430.7135u    899.5632m  
    1.10000n    430.6480u    899.5632m  
    1.11000n    430.6480u    899.5632m  
    1.12000n    430.6480u    899.5632m  
    1.13000n    430.6480u    899.5632m  
    1.14000n    430.6480u    899.5632m  
    1.15000n    430.6480u    899.5632m  
    1.16000n    430.6480u    899.5632m  
    1.17000n    430.6480u    899.5632m  
    1.18000n    430.6480u    899.5632m  
    1.19000n    430.6480u    899.5632m  
    1.20000n    430.6480u    899.5632m  
    1.21000n    430.6480u    899.5632m  
    1.22000n    430.6480u    899.5632m  
    1.23000n    430.6480u    899.5632m  
    1.24000n    430.6480u    899.5632m  
    1.25000n    430.6480u    899.5632m  
    1.26000n    430.6480u    899.5632m  
    1.27000n    430.6480u    899.5632m  
    1.28000n    430.6480u    899.5632m  
    1.29000n    430.6480u    899.5632m  
    1.30000n    430.6480u    899.5632m  
    1.31000n    430.6480u    899.5632m  
    1.32000n    430.6480u    899.5632m  
    1.33000n    430.6480u    899.5632m  
    1.34000n    430.6480u    899.5632m  
    1.35000n    430.6480u    899.5632m  
    1.36000n    430.6480u    899.5632m  
    1.37000n    430.6480u    899.5632m  
    1.38000n    430.6480u    899.5632m  
    1.39000n    430.6480u    899.5632m  
    1.40000n    430.6480u    899.5632m  
    1.41000n    430.6480u    899.5632m  
    1.42000n    430.6480u    899.5632m  
    1.43000n    430.6480u    899.5632m  
    1.44000n    430.6480u    899.5632m  
    1.45000n    430.6480u    899.5632m  
    1.46000n    430.6480u    899.5632m  
    1.47000n    430.6480u    899.5632m  
    1.48000n    430.6480u    899.5632m  
    1.49000n    430.6480u    899.5632m  
    1.50000n    430.6480u    899.5632m  
    1.51000n    430.6480u    899.5632m  
    1.52000n    430.6480u    899.5632m  
    1.53000n    430.6480u    899.5632m  
    1.54000n    430.6480u    899.5632m  
    1.55000n    430.6480u    899.5632m  
    1.56000n    430.6480u    899.5632m  
    1.57000n    430.6480u    899.5632m  
    1.58000n    430.6480u    899.5632m  
    1.59000n    430.6480u    899.5632m  
    1.60000n    430.6480u    899.5632m  
    1.61000n    430.6480u    899.5632m  
    1.62000n    430.6480u    899.5632m  
    1.63000n    430.6480u    899.5632m  
    1.64000n    430.6480u    899.5632m  
    1.65000n    430.6480u    899.5632m  
    1.66000n    430.6480u    899.5632m  
    1.67000n    430.6480u    899.5632m  
    1.68000n    430.6480u    899.5632m  
    1.69000n    430.6480u    899.5632m  
    1.70000n    430.6480u    899.5632m  
    1.71000n    430.6480u    899.5632m  
    1.72000n    430.6480u    899.5632m  
    1.73000n    430.6480u    899.5632m  
    1.74000n    430.6480u    899.5632m  
    1.75000n    430.6480u    899.5632m  
    1.76000n    430.6480u    899.5632m  
    1.77000n    430.6480u    899.5632m  
    1.78000n    430.6480u    899.5632m  
    1.79000n    430.6480u    899.5632m  
    1.80000n    430.6480u    899.5632m  
    1.81000n    430.6480u    899.5632m  
    1.82000n    430.6480u    899.5632m  
    1.83000n    430.6480u    899.5632m  
    1.84000n    430.6480u    899.5632m  
    1.85000n    430.6480u    899.5632m  
    1.86000n    430.6480u    899.5632m  
    1.87000n    430.6480u    899.5632m  
    1.88000n    430.6480u    899.5632m  
    1.89000n    430.6480u    899.5632m  
    1.90000n    430.6480u    899.5632m  
    1.91000n    430.6480u    899.5632m  
    1.92000n    430.6480u    899.5632m  
    1.93000n    430.6480u    899.5632m  
    1.94000n    430.6480u    899.5632m  
    1.95000n    430.6480u    899.5632m  
    1.96000n    430.6480u    899.5632m  
    1.97000n    430.6480u    899.5632m  
    1.98000n    430.6480u    899.5632m  
    1.99000n    430.6480u    899.5632m  
    2.00000n    430.6480u    899.5632m  
    2.01000n    430.6480u    899.5632m  
    2.02000n    430.6480u    899.5632m  
    2.03000n    430.6480u    899.5632m  
    2.04000n    430.6480u    899.5632m  
    2.05000n    430.6480u    899.5632m  
    2.06000n     -1.5321m    899.3193m  
    2.07000n     15.4552m    898.7282m  
    2.08000n    185.8084m    890.5306m  
    2.09000n    783.7353m    229.9075m  
    2.10000n    895.1995m      2.7699m  
    2.11000n    899.2691m    582.4735u  
    2.12000n    899.5182m    422.3981u  
    2.13000n    899.5661m    432.9462u  
    2.14000n    899.5928m    434.5818u  
    2.15000n    899.5663m    430.6566u  
    2.16000n    899.5399m    426.7315u  
    2.17000n    899.5359m    426.2644u  
    2.18000n    899.5458m    427.9238u  
    2.19000n    899.5558m    429.5831u  
    2.20000n    899.5657m    431.2424u  
    2.21000n    899.5756m    432.9018u  
    2.22000n    899.5855m    434.5611u  
    2.23000n    899.5928m    435.7799u  
    2.24000n    899.5892m    435.1550u  
    2.25000n    899.5856m    434.5301u  
    2.26000n    899.5820m    433.9052u  
    2.27000n    899.5784m    433.2803u  
    2.28000n    899.5748m    432.6554u  
    2.29000n    899.5712m    432.0305u  
    2.30000n    899.5676m    431.4056u  
    2.31000n    899.5639m    430.7807u  
    2.32000n    899.5603m    430.1558u  
    2.33000n    899.5567m    429.5309u  
    2.34000n    899.5531m    428.9060u  
    2.35000n    899.5495m    428.2811u  
    2.36000n    899.5459m    427.6562u  
    2.37000n    899.5423m    427.0313u  
    2.38000n    899.5387m    426.4064u  
    2.39000n    899.5351m    425.7815u  
    2.40000n    899.5364m    426.0265u  
    2.41000n    899.5393m    426.5284u  
    2.42000n    899.5422m    427.0303u  
    2.43000n    899.5450m    427.5322u  
    2.44000n    899.5479m    428.0342u  
    2.45000n    899.5507m    428.5361u  
    2.46000n    899.5536m    429.0380u  
    2.47000n    899.5565m    429.5399u  
    2.48000n    899.5593m    430.0418u  
    2.49000n    899.5622m    430.5437u  
    2.50000n    899.5650m    431.0456u  
    2.51000n    899.5679m    431.5476u  
    2.52000n    899.5707m    432.0495u  
    2.53000n    899.5736m    432.5514u  
    2.54000n    899.5765m    433.0533u  
    2.55000n    899.5793m    433.5552u  
    2.56000n    899.5822m    434.0571u  
    2.57000n    899.5850m    434.5591u  
    2.58000n    899.5879m    435.0610u  
    2.59000n    899.5908m    435.5629u  
    2.60000n    899.5893m    435.2979u  
    2.61000n    899.5865m    434.8064u  
    2.62000n    899.5837m    434.3149u  
    2.63000n    899.5810m    433.8233u  
    2.64000n    899.5782m    433.3318u  
    2.65000n    899.5754m    432.8403u  
    2.66000n    899.5727m    432.3488u  
    2.67000n    899.5699m    431.8573u  
    2.68000n    899.5671m    431.3658u  
    2.69000n    899.5644m    430.8743u  
    2.70000n    899.5616m    430.3827u  
    2.71000n    899.5588m    429.8912u  
    2.72000n    899.5561m    429.3997u  
    2.73000n    899.5533m    428.9082u  
    2.74000n    899.5505m    428.4167u  
    2.75000n    899.5478m    427.9252u  
    2.76000n    899.5450m    427.4337u  
    2.77000n    899.5422m    426.9421u  
    2.78000n    899.5395m    426.4506u  
    2.79000n    899.5367m    425.9591u  
    2.80000n    899.5381m    426.2182u  
    2.81000n    899.5408m    426.6990u  
    2.82000n    899.5435m    427.1798u  
    2.83000n    899.5462m    427.6606u  
    2.84000n    899.5488m    428.1415u  
    2.85000n    899.5515m    428.6223u  
    2.86000n    899.5542m    429.1031u  
    2.87000n    899.5569m    429.5839u  
    2.88000n    899.5596m    430.0647u  
    2.89000n    899.5622m    430.5455u  
    2.90000n    899.5649m    431.0263u  
    2.91000n    899.5676m    431.5071u  
    2.92000n    899.5703m    431.9879u  
    2.93000n    899.5730m    432.4687u  
    2.94000n    899.5756m    432.9495u  
    2.95000n    899.5783m    433.4303u  
    2.96000n    899.5810m    433.9111u  
    2.97000n    899.5837m    434.3920u  
    2.98000n    899.5864m    434.8728u  
    2.99000n    899.5890m    435.3536u  
    3.00000n    899.5830m    434.2436u  
    3.01000n    899.5743m    432.6639u  
    3.02000n    899.5656m    431.0841u  
    3.03000n    899.5570m    429.5043u  
    3.04000n    899.5483m    427.9246u  
    3.05000n    899.5397m    426.3448u  
    3.06000n    899.5633m    430.9924u  
    3.07000n    899.5632m    430.6343u  
    3.08000n    899.5634m    430.6841u  
    3.09000n    899.5633m    430.6947u  
    3.10000n    899.5633m    430.7095u  
    3.11000n    899.5633m    430.7096u  
    3.12000n    899.5633m    430.7096u  
    3.13000n    899.5633m    430.7096u  
    3.14000n    899.5633m    430.7096u  
    3.15000n    899.5633m    430.7096u  
    3.16000n    899.5633m    430.7096u  
    3.17000n    899.5633m    430.7096u  
    3.18000n    899.5633m    430.7096u  
    3.19000n    899.5633m    430.7096u  
    3.20000n    899.5633m    430.7096u  
    3.21000n    899.5633m    430.7096u  
    3.22000n    899.5633m    430.7096u  
    3.23000n    899.5633m    430.7096u  
    3.24000n    899.5633m    430.7096u  
    3.25000n    899.5633m    430.7096u  
    3.26000n    899.5633m    430.7096u  
    3.27000n    899.5633m    430.7096u  
    3.28000n    899.5633m    430.7096u  
    3.29000n    899.5633m    430.7096u  
    3.30000n    899.5633m    430.7096u  
    3.31000n    899.5633m    430.7096u  
    3.32000n    899.5633m    430.7096u  
    3.33000n    899.5633m    430.7096u  
    3.34000n    899.5633m    430.7096u  
    3.35000n    899.5633m    430.7096u  
    3.36000n    899.5633m    430.7096u  
    3.37000n    899.5633m    430.7096u  
    3.38000n    899.5633m    430.7096u  
    3.39000n    899.5633m    430.7096u  
    3.40000n    899.5633m    430.7096u  
    3.41000n    899.5633m    430.7096u  
    3.42000n    899.5633m    430.7096u  
    3.43000n    899.5633m    430.7096u  
    3.44000n    899.5633m    430.7096u  
    3.45000n    899.5633m    430.7096u  
    3.46000n    899.5633m    430.7096u  
    3.47000n    899.5633m    430.7096u  
    3.48000n    899.5633m    430.7096u  
    3.49000n    899.5633m    430.7096u  
    3.50000n    899.5633m    430.7096u  
    3.51000n    899.5633m    430.7096u  
    3.52000n    899.5633m    430.7096u  
    3.53000n    899.5633m    430.7096u  
    3.54000n    899.5633m    430.7096u  
    3.55000n    899.5633m    430.7096u  
    3.56000n    899.5633m    430.7096u  
    3.57000n    899.5633m    430.7096u  
    3.58000n    899.5633m    430.7096u  
    3.59000n    899.5633m    430.7096u  
    3.60000n    899.5633m    430.7096u  
    3.61000n    899.5633m    430.7096u  
    3.62000n    899.5633m    430.7096u  
    3.63000n    899.5633m    430.7096u  
    3.64000n    899.5633m    430.7096u  
    3.65000n    899.5633m    430.7096u  
    3.66000n    899.5633m    430.7096u  
    3.67000n    899.5633m    430.7096u  
    3.68000n    899.5633m    430.7096u  
    3.69000n    899.5633m    430.7096u  
    3.70000n    899.5633m    430.7096u  
    3.71000n    899.5633m    430.7096u  
    3.72000n    899.5633m    430.7096u  
    3.73000n    899.5633m    430.7096u  
    3.74000n    899.5633m    430.7096u  
    3.75000n    899.5633m    430.7096u  
    3.76000n    899.5633m    430.7096u  
    3.77000n    899.5633m    430.7096u  
    3.78000n    899.5633m    430.7096u  
    3.79000n    899.5633m    430.7096u  
    3.80000n    899.5633m    430.7096u  
    3.81000n    899.5633m    430.7096u  
    3.82000n    899.5633m    430.7096u  
    3.83000n    899.5633m    430.7096u  
    3.84000n    899.5633m    430.7096u  
    3.85000n    899.5633m    430.7096u  
    3.86000n    899.5633m    430.7096u  
    3.87000n    899.5633m    430.7096u  
    3.88000n    899.5633m    430.7096u  
    3.89000n    899.5633m    430.7096u  
    3.90000n    899.5633m    430.7096u  
    3.91000n    899.5633m    430.7096u  
    3.92000n    899.5633m    430.7096u  
    3.93000n    899.5633m    430.7096u  
    3.94000n    899.5633m    430.7096u  
    3.95000n    899.5633m    430.7096u  
    3.96000n    899.5633m    430.7096u  
    3.97000n    899.5633m    430.7096u  
    3.98000n    899.5633m    430.7096u  
    3.99000n    899.5633m    430.7096u  
    4.00000n    899.5633m    430.7096u  
y

          ***** job concluded
1****** HSPICE -- F-2011.09-SP2 64-BIT (Feb 27 2012) linux ******               
 ******  
 $ netlist of inverter

  ******  job statistics summary tnom=  25.000 temp=  25.000 *****
  
  
 ******  Machine Information  ******
 CPU:
 model name	: Intel(R) Xeon(R) CPU E5-2650 v4 @ 2.20GHz
 cpu MHz	: 2622.726
  
 OS:
 Linux version 3.10.0-693.17.1.el7.x86_64 (mockbuild@x86-041.build.eng.bos.redha
 t.com) (gcc version 4.8.5 20150623 (Red Hat 4.8.5-16) (GCC) ) #1 SMP Sun Jan 14
  10:36:03 EST 2018


  ******  HSPICE Threads Information  ******

  Command Line Threads Count :     1
  Available CPU Count        :    24
  Actual Threads Count       :     1


  ******  Circuit Statistics  ******
  # nodes       =      44 # elements   =      19
  # resistors   =       0 # capacitors =       0 # inductors   =       0
  # mutual_inds =       0 # vccs       =       0 # vcvs        =       0
  # cccs        =       0 # ccvs       =       0 # volt_srcs   =       3
  # curr_srcs   =       0 # diodes     =       0 # bjts        =       0
  # jfets       =       0 # mosfets    =      16 # U elements  =       0
  # T elements  =       0 # W elements =       0 # B elements  =       0
  # S elements  =       0 # P elements =       0 # va device   =       0
  # vector_srcs =       0


  ******  Runtime Statistics (seconds)  ******

  analysis           time    # points   tot. iter  conv.iter
  op point           0.00           1           5
  transient          0.08         401         829         131 rev=         8
  readin             0.00
  errchk             0.01
  setup              0.00
  output             0.00


           peak memory used        135.46 megabytes
           total cpu time            0.09 seconds
           total elapsed time        0.35 seconds
           job started at     18:27:15 09/13/2020
           job ended   at     18:27:16 09/13/2020


 lic: Release hspice token(s) 
