$DATA1 SOURCE='HSPICE' VERSION='F-2011.09-SP2 64-BIT'
.TITLE '$ netlist of inverter'
 model_uut_peak_power00 model_uut_avg_power00 uut_peak_power    
 uut_avg_power    source_peak_power source_avg_power trf_delay_001     
 tfr_delay_001    temper           alter#            
  3.643e-05        4.112e-07        3.643e-05        4.112e-07        
  5.536e-05        7.305e-07        9.813e-12        1.048e-11        
  2.500e+01       1                 
