 ****** HSPICE -- F-2011.09-SP2 64-BIT (Feb 27 2012) linux ******               
  Copyright (C) 2011 Synopsys, Inc. All Rights Reserved.                        
  Unpublished-rights reserved under US copyright laws.
  This program is protected by law and is subject to the
  terms and conditions of the license agreement from Synopsys.
  Use of this program is your acceptance to be bound by the
  license agreement. HSPICE is the trademark of Synopsys, Inc.
  Input File: ptm20hp.sp                                                        
  Command line options: ptm20hp.sp
 lic:  
 lic: FLEXlm: v10.8 
 lic: USER:   iliabautista         HOSTNAME: itn0.rc.usf.edu 
 lic: HOSTID:                      PID:      95576 
 lic: Using FLEXlm license file: 
 lic: 27000@license0.rc.usf.edu 
 lic: Checkout 1 hspice 
 lic: License/Maintenance for hspice will expire on 18-jul-2021/2019.06 
 lic: 1(in_use)/50(total) FLOATING license(s) on SERVER license0.rc.usf.edu 
 lic:   
  **warning** (../modelfiles/hp/20nfet.pm:4) Model nfet device geometries will not be checked against the limits set by lmin, lmax, nfinmin and nfinmax. To enable this check, add a period(.) to the model name(i.e. enable model selector).
1****** HSPICE -- F-2011.09-SP2 64-BIT (Feb 27 2012) linux ******               
 ******  
 $ netlist of inverter

  ******  circuit name directory
 circuit number to circuit name directory
   number circuitname                     definition         multiplier
        0 main circuit
        1 xinput_0.                       inverter           1.00 
        2 xmodel_uut_grid.                model_uut_grid     1.00 
        3 xoutput_00.                     inverter           1.00 
        4 xoutput_000.                    inverter           1.00 
        5 xoutput_0000.                   inverter           1.00 
        6 xoutput_0001.                   inverter           1.00 
        7 xoutput_0002.                   inverter           1.00 
        8 xoutput_0003.                   inverter           1.00 
        9 xoutput_001.                    inverter           1.00 
       10 xoutput_0010.                   inverter           1.00 
       11 xoutput_0011.                   inverter           1.00 
       12 xoutput_0012.                   inverter           1.00 
       13 xoutput_0013.                   inverter           1.00 
       14 xoutput_002.                    inverter           1.00 
       15 xoutput_0020.                   inverter           1.00 
       16 xoutput_0021.                   inverter           1.00 
       17 xoutput_0022.                   inverter           1.00 
       18 xoutput_0023.                   inverter           1.00 
       19 xoutput_003.                    inverter           1.00 
       20 xoutput_0030.                   inverter           1.00 
       21 xoutput_0031.                   inverter           1.00 
       22 xoutput_0032.                   inverter           1.00 
       23 xoutput_0033.                   inverter           1.00 
       24 xoutput_01.                     inverter           1.00 
       25 xoutput_010.                    inverter           1.00 
       26 xoutput_0100.                   inverter           1.00 
       27 xoutput_0101.                   inverter           1.00 
       28 xoutput_0102.                   inverter           1.00 
       29 xoutput_0103.                   inverter           1.00 
       30 xoutput_011.                    inverter           1.00 
       31 xoutput_0110.                   inverter           1.00 
       32 xoutput_0111.                   inverter           1.00 
       33 xoutput_0112.                   inverter           1.00 
       34 xoutput_0113.                   inverter           1.00 
       35 xoutput_012.                    inverter           1.00 
       36 xoutput_0120.                   inverter           1.00 
       37 xoutput_0121.                   inverter           1.00 
       38 xoutput_0122.                   inverter           1.00 
       39 xoutput_0123.                   inverter           1.00 
       40 xoutput_013.                    inverter           1.00 
       41 xoutput_0130.                   inverter           1.00 
       42 xoutput_0131.                   inverter           1.00 
       43 xoutput_0132.                   inverter           1.00 
       44 xoutput_0133.                   inverter           1.00 
       45 xoutput_02.                     inverter           1.00 
       46 xoutput_020.                    inverter           1.00 
       47 xoutput_0200.                   inverter           1.00 
       48 xoutput_0201.                   inverter           1.00 
       49 xoutput_0202.                   inverter           1.00 
       50 xoutput_0203.                   inverter           1.00 
       51 xoutput_021.                    inverter           1.00 
       52 xoutput_0210.                   inverter           1.00 
       53 xoutput_0211.                   inverter           1.00 
       54 xoutput_0212.                   inverter           1.00 
       55 xoutput_0213.                   inverter           1.00 
       56 xoutput_022.                    inverter           1.00 
       57 xoutput_0220.                   inverter           1.00 
       58 xoutput_0221.                   inverter           1.00 
       59 xoutput_0222.                   inverter           1.00 
       60 xoutput_0223.                   inverter           1.00 
       61 xoutput_023.                    inverter           1.00 
       62 xoutput_0230.                   inverter           1.00 
       63 xoutput_0231.                   inverter           1.00 
       64 xoutput_0232.                   inverter           1.00 
       65 xoutput_0233.                   inverter           1.00 
       66 xoutput_03.                     inverter           1.00 
       67 xoutput_030.                    inverter           1.00 
       68 xoutput_0300.                   inverter           1.00 
       69 xoutput_0301.                   inverter           1.00 
       70 xoutput_0302.                   inverter           1.00 
       71 xoutput_0303.                   inverter           1.00 
       72 xoutput_031.                    inverter           1.00 
       73 xoutput_0310.                   inverter           1.00 
       74 xoutput_0311.                   inverter           1.00 
       75 xoutput_0312.                   inverter           1.00 
       76 xoutput_0313.                   inverter           1.00 
       77 xoutput_032.                    inverter           1.00 
       78 xoutput_0320.                   inverter           1.00 
       79 xoutput_0321.                   inverter           1.00 
       80 xoutput_0322.                   inverter           1.00 
       81 xoutput_0323.                   inverter           1.00 
       82 xoutput_033.                    inverter           1.00 
       83 xoutput_0330.                   inverter           1.00 
       84 xoutput_0331.                   inverter           1.00 
       85 xoutput_0332.                   inverter           1.00 
       86 xoutput_0333.                   inverter           1.00 
       87 xinput_0.xpfet.                 pfet               1.00 
       88 xinput_0.xnfet.                 nfet               1.00 
       89 xmodel_uut_grid.xinverter00.    inverter           1.00 
       90 xoutput_00.xpfet.               pfet               1.00 
       91 xoutput_00.xnfet.               nfet               1.00 
       92 xoutput_000.xpfet.              pfet               1.00 
       93 xoutput_000.xnfet.              nfet               1.00 
       94 xoutput_0000.xpfet.             pfet               1.00 
       95 xoutput_0000.xnfet.             nfet               1.00 
       96 xoutput_0001.xpfet.             pfet               1.00 
       97 xoutput_0001.xnfet.             nfet               1.00 
       98 xoutput_0002.xpfet.             pfet               1.00 
       99 xoutput_0002.xnfet.             nfet               1.00 
      100 xoutput_0003.xpfet.             pfet               1.00 
      101 xoutput_0003.xnfet.             nfet               1.00 
      102 xoutput_001.xpfet.              pfet               1.00 
      103 xoutput_001.xnfet.              nfet               1.00 
      104 xoutput_0010.xpfet.             pfet               1.00 
      105 xoutput_0010.xnfet.             nfet               1.00 
      106 xoutput_0011.xpfet.             pfet               1.00 
      107 xoutput_0011.xnfet.             nfet               1.00 
      108 xoutput_0012.xpfet.             pfet               1.00 
      109 xoutput_0012.xnfet.             nfet               1.00 
      110 xoutput_0013.xpfet.             pfet               1.00 
      111 xoutput_0013.xnfet.             nfet               1.00 
      112 xoutput_002.xpfet.              pfet               1.00 
      113 xoutput_002.xnfet.              nfet               1.00 
      114 xoutput_0020.xpfet.             pfet               1.00 
      115 xoutput_0020.xnfet.             nfet               1.00 
      116 xoutput_0021.xpfet.             pfet               1.00 
      117 xoutput_0021.xnfet.             nfet               1.00 
      118 xoutput_0022.xpfet.             pfet               1.00 
      119 xoutput_0022.xnfet.             nfet               1.00 
      120 xoutput_0023.xpfet.             pfet               1.00 
      121 xoutput_0023.xnfet.             nfet               1.00 
      122 xoutput_003.xpfet.              pfet               1.00 
      123 xoutput_003.xnfet.              nfet               1.00 
      124 xoutput_0030.xpfet.             pfet               1.00 
      125 xoutput_0030.xnfet.             nfet               1.00 
      126 xoutput_0031.xpfet.             pfet               1.00 
      127 xoutput_0031.xnfet.             nfet               1.00 
      128 xoutput_0032.xpfet.             pfet               1.00 
      129 xoutput_0032.xnfet.             nfet               1.00 
      130 xoutput_0033.xpfet.             pfet               1.00 
      131 xoutput_0033.xnfet.             nfet               1.00 
      132 xoutput_01.xpfet.               pfet               1.00 
      133 xoutput_01.xnfet.               nfet               1.00 
      134 xoutput_010.xpfet.              pfet               1.00 
      135 xoutput_010.xnfet.              nfet               1.00 
      136 xoutput_0100.xpfet.             pfet               1.00 
      137 xoutput_0100.xnfet.             nfet               1.00 
      138 xoutput_0101.xpfet.             pfet               1.00 
      139 xoutput_0101.xnfet.             nfet               1.00 
      140 xoutput_0102.xpfet.             pfet               1.00 
      141 xoutput_0102.xnfet.             nfet               1.00 
      142 xoutput_0103.xpfet.             pfet               1.00 
      143 xoutput_0103.xnfet.             nfet               1.00 
      144 xoutput_011.xpfet.              pfet               1.00 
      145 xoutput_011.xnfet.              nfet               1.00 
      146 xoutput_0110.xpfet.             pfet               1.00 
      147 xoutput_0110.xnfet.             nfet               1.00 
      148 xoutput_0111.xpfet.             pfet               1.00 
      149 xoutput_0111.xnfet.             nfet               1.00 
      150 xoutput_0112.xpfet.             pfet               1.00 
      151 xoutput_0112.xnfet.             nfet               1.00 
      152 xoutput_0113.xpfet.             pfet               1.00 
      153 xoutput_0113.xnfet.             nfet               1.00 
      154 xoutput_012.xpfet.              pfet               1.00 
      155 xoutput_012.xnfet.              nfet               1.00 
      156 xoutput_0120.xpfet.             pfet               1.00 
      157 xoutput_0120.xnfet.             nfet               1.00 
      158 xoutput_0121.xpfet.             pfet               1.00 
      159 xoutput_0121.xnfet.             nfet               1.00 
      160 xoutput_0122.xpfet.             pfet               1.00 
      161 xoutput_0122.xnfet.             nfet               1.00 
      162 xoutput_0123.xpfet.             pfet               1.00 
      163 xoutput_0123.xnfet.             nfet               1.00 
      164 xoutput_013.xpfet.              pfet               1.00 
      165 xoutput_013.xnfet.              nfet               1.00 
      166 xoutput_0130.xpfet.             pfet               1.00 
      167 xoutput_0130.xnfet.             nfet               1.00 
      168 xoutput_0131.xpfet.             pfet               1.00 
      169 xoutput_0131.xnfet.             nfet               1.00 
      170 xoutput_0132.xpfet.             pfet               1.00 
      171 xoutput_0132.xnfet.             nfet               1.00 
      172 xoutput_0133.xpfet.             pfet               1.00 
      173 xoutput_0133.xnfet.             nfet               1.00 
      174 xoutput_02.xpfet.               pfet               1.00 
      175 xoutput_02.xnfet.               nfet               1.00 
      176 xoutput_020.xpfet.              pfet               1.00 
      177 xoutput_020.xnfet.              nfet               1.00 
      178 xoutput_0200.xpfet.             pfet               1.00 
      179 xoutput_0200.xnfet.             nfet               1.00 
      180 xoutput_0201.xpfet.             pfet               1.00 
      181 xoutput_0201.xnfet.             nfet               1.00 
      182 xoutput_0202.xpfet.             pfet               1.00 
      183 xoutput_0202.xnfet.             nfet               1.00 
      184 xoutput_0203.xpfet.             pfet               1.00 
      185 xoutput_0203.xnfet.             nfet               1.00 
      186 xoutput_021.xpfet.              pfet               1.00 
      187 xoutput_021.xnfet.              nfet               1.00 
      188 xoutput_0210.xpfet.             pfet               1.00 
      189 xoutput_0210.xnfet.             nfet               1.00 
      190 xoutput_0211.xpfet.             pfet               1.00 
      191 xoutput_0211.xnfet.             nfet               1.00 
      192 xoutput_0212.xpfet.             pfet               1.00 
      193 xoutput_0212.xnfet.             nfet               1.00 
      194 xoutput_0213.xpfet.             pfet               1.00 
      195 xoutput_0213.xnfet.             nfet               1.00 
      196 xoutput_022.xpfet.              pfet               1.00 
      197 xoutput_022.xnfet.              nfet               1.00 
      198 xoutput_0220.xpfet.             pfet               1.00 
      199 xoutput_0220.xnfet.             nfet               1.00 
      200 xoutput_0221.xpfet.             pfet               1.00 
      201 xoutput_0221.xnfet.             nfet               1.00 
      202 xoutput_0222.xpfet.             pfet               1.00 
      203 xoutput_0222.xnfet.             nfet               1.00 
      204 xoutput_0223.xpfet.             pfet               1.00 
      205 xoutput_0223.xnfet.             nfet               1.00 
      206 xoutput_023.xpfet.              pfet               1.00 
      207 xoutput_023.xnfet.              nfet               1.00 
      208 xoutput_0230.xpfet.             pfet               1.00 
      209 xoutput_0230.xnfet.             nfet               1.00 
      210 xoutput_0231.xpfet.             pfet               1.00 
      211 xoutput_0231.xnfet.             nfet               1.00 
      212 xoutput_0232.xpfet.             pfet               1.00 
      213 xoutput_0232.xnfet.             nfet               1.00 
      214 xoutput_0233.xpfet.             pfet               1.00 
      215 xoutput_0233.xnfet.             nfet               1.00 
      216 xoutput_03.xpfet.               pfet               1.00 
      217 xoutput_03.xnfet.               nfet               1.00 
      218 xoutput_030.xpfet.              pfet               1.00 
      219 xoutput_030.xnfet.              nfet               1.00 
      220 xoutput_0300.xpfet.             pfet               1.00 
      221 xoutput_0300.xnfet.             nfet               1.00 
      222 xoutput_0301.xpfet.             pfet               1.00 
      223 xoutput_0301.xnfet.             nfet               1.00 
      224 xoutput_0302.xpfet.             pfet               1.00 
      225 xoutput_0302.xnfet.             nfet               1.00 
      226 xoutput_0303.xpfet.             pfet               1.00 
      227 xoutput_0303.xnfet.             nfet               1.00 
      228 xoutput_031.xpfet.              pfet               1.00 
      229 xoutput_031.xnfet.              nfet               1.00 
      230 xoutput_0310.xpfet.             pfet               1.00 
      231 xoutput_0310.xnfet.             nfet               1.00 
      232 xoutput_0311.xpfet.             pfet               1.00 
      233 xoutput_0311.xnfet.             nfet               1.00 
      234 xoutput_0312.xpfet.             pfet               1.00 
      235 xoutput_0312.xnfet.             nfet               1.00 
      236 xoutput_0313.xpfet.             pfet               1.00 
      237 xoutput_0313.xnfet.             nfet               1.00 
      238 xoutput_032.xpfet.              pfet               1.00 
      239 xoutput_032.xnfet.              nfet               1.00 
      240 xoutput_0320.xpfet.             pfet               1.00 
      241 xoutput_0320.xnfet.             nfet               1.00 
      242 xoutput_0321.xpfet.             pfet               1.00 
      243 xoutput_0321.xnfet.             nfet               1.00 
      244 xoutput_0322.xpfet.             pfet               1.00 
      245 xoutput_0322.xnfet.             nfet               1.00 
      246 xoutput_0323.xpfet.             pfet               1.00 
      247 xoutput_0323.xnfet.             nfet               1.00 
      248 xoutput_033.xpfet.              pfet               1.00 
      249 xoutput_033.xnfet.              nfet               1.00 
      250 xoutput_0330.xpfet.             pfet               1.00 
      251 xoutput_0330.xnfet.             nfet               1.00 
      252 xoutput_0331.xpfet.             pfet               1.00 
      253 xoutput_0331.xnfet.             nfet               1.00 
      254 xoutput_0332.xpfet.             pfet               1.00 
      255 xoutput_0332.xnfet.             nfet               1.00 
      256 xoutput_0333.xpfet.             pfet               1.00 
      257 xoutput_0333.xnfet.             nfet               1.00 
      258 xmodel_uut_grid.xinverter00.xpfet.
                                            pfet               1.00 
      259 xmodel_uut_grid.xinverter00.xnfet.
                                            nfet               1.00 
1****** HSPICE -- F-2011.09-SP2 64-BIT (Feb 27 2012) linux ******               
 ******  
 $ netlist of inverter

  ******  mos   model parameters tnom=  25.000 temp=  25.000 *****
 Model Name: pfet 
 BSIM-MG BULK Model(Level72)
   VERSION = 105.03  
   DEVTYPE = -1 
   BULKMOD = 1  
   COREMOD = 0 
   GEOMOD = 1 
   RDSMOD = 1 
   IGCMOD = 1 
   IGBMOD = 1 
   GIDLMOD = 0 
   IIMOD = 0 
   NQSMOD = 0 
   SHMOD = 0 
   RGATEMOD = 0 
   RGEOMOD = 1 
   CGEOMOD = 2 
   CAPMOD = 0 
   LINT =  1e-09 m
   LL =      0 m^(LLN+1)
   LLN =      1 
   DLC =      0 m
   DLBIN =      0 
   LLC =      0 m^(LLN+1)
   EOT = 8.4e-10 m
   TOXP = 1.4e-09 m
   EOTBOX = 1.4e-07 m
   HFIN = 2.8e-08 m
   FECH =      1 
   DELTAW =      0 m
   FECHCV =      1 
   DELTAWCV =      0 m
   NBODY =  5e+23 m^-3
   NSD =  3e+26 m^-3
   PHIG =  4.798 eV
   EPSROX =    3.9 
   EPSRSUB =   11.9 
   EASUB =   4.05 eV
   NI0SUB = 1.1e+16 m^-3
   BG0SUB =   1.12 eV
   NC0SUB = 2.86e+25 m^-3
   NGATE =      0 m^-3
   CIT = 1.3e-05 F/m^2
   CDSC = 0.0132 F/m^2
   CDSCD =  0.007 F/m^2
   CDSCDR =  0.007 
   DVT0 =   0.01 
   DVT1 =   0.69 
   PHIN =   0.05 V
   ETA0 =   0.71 
   ETA0R =   0.71 
   DSUB =    0.9 
   K1RSCE =      0 V^1/2
   LPE0 =  5e-09 m
   DVTSHIFT =      0 
   QMFACTOR =      0 
   QMTCENIV =      0 
   QMTCENCV =      0 
   AQMTCEN =      0 
   BQMTCEN = 1.2e-08 
   ETAQM =   0.54 
   QM0 = 0.001143 
   PQM =   0.66 
   QM0ACC =  0.001 
   PQMACC =   0.66 
   VSAT = 8.4e+04 
   AVSAT =      0 
   BVSAT =  1e-07 
   VSAT1 = 8.4e+04 
   AVSAT1 =      0 
   BVSAT1 =  1e-07 
   DELTAVSAT =      1 
   KSATIV =    0.8 
   MEXP =      3 
   AMEXP =      0 
   BMEXP =      1 
   PTWG =      0 
   APTWG =      0 
   BPTWG =  1e-07 
   AT = -0.00156 
   TMEXP =      0 
   PTWGT =  0.004 
   U0 =  0.026 
   ETAMOB =      2 
   UP =      0 
   LPA =      1 
   UA =    0.3 
   AUA =      0 
   BUA =  1e-07 
   EU =    1.8 
   AEU =      0 
   BEU =  1e-07 
   UD =      0 
   AUD =      0 
   BUD =  5e-08 
   UCS =      0 
   UTE =      0 
   UTL = -0.0015 
   UA1 = 0.001032 
   UD1 =      0 
   UCSTE = -0.00478 
   RDSWMIN =      0 
   RDSW =    100 
   ARDSW =      0 
   BRDSW =  1e-07 
   RSWMIN =      0 
   RSW =      0 
   ARSW =      0 
   BRSW =  1e-07 
   RDWMIN =      0 
   RDW =      0 
   ARDW =      0 
   BRDW =  1e-07 
   PRWG =      0 
   WR =      1 
   PRT =  0.001 
   PDIBL1 =    1.3 
   PDIBL2 = 0.0002 
   DROUT =   1.06 
   PVAG =      1 
   PCLM =    0.2 
   APCLM =      0 
   BPCLM =  1e-07 
   PCLMG =      0 
   VASAT =    0.6 
   PCLMCV =  0.013 
   PCLMGCV =      0 
   VASATCV =    0.2 
   RGEXT =      0 ohm
   RGFIN =  0.001 ohm
   RSHS =      0 ohm
   RSHD =      0 ohm
   HEPI =  1e-08 m
   TSILI =  1e-08 m
   RHOC =  5e-12 ohm/m^2
   RHORSD =      1 ohm/m
   RHOEXT =      1 ohm/m
   CRATIO =    0.5 
   DELTAPRSD =      0 m
   SDTERM = 0 
   LSP = 4.8e-09 m
   LDG =  3e-09 m
   EPSRSP =    3.9 
   TGATE =  1e-08 m
   TMASK =      0 m
   ASILIEND =      0 m^2
   ARSDEND =      0 m^2
   PRSDEND =      0 m
   NSDE =  3e+25 m^-3
   RGEOA =      1 
   RGEOB =      0 m^-1
   RGEOC =      0 m^-1
   RGEOD =      0 m^-1
   RGEOE =      0 m^-1
   CGEOA =      1 
   CGEOB =      0 m^-1
   CGEOC =      0 m^-1
   CGEOD =      0 m^-1
   CGEOE =      1 
   AIGBINV = 0.0111 (Fs^2/g)^0.5m^-1
   BIGBINV =   0.03 (Fs^2/g)^0.5m^-1
   CIGBINV =  0.006 V^-1
   EIGBINV =    1.1 V
   NIGBINV =    1.2 
   AIGBACC = 0.0149 
   BIGBACC = 0.000949 
   CIGBACC =  0.075 
   NIGBACC =      3 
   AIGC = 0.0136 (Fs^2/g)^0.5m^-1
   BIGC = 0.00171 (Fs^2/g)^0.5m^-1V^-1
   CIGC =  0.075 V^-1
   NIGC =      1 
   DLCIGS =      0 m
   AIGS = 0.0136 (Fs^2/g)^0.5m^-1
   BIGS = 0.00171 (Fs^2/g)^0.5m^-1V^-1
   CIGS =  0.075 V^-1
   DLCIGD =      0 m
   AIGD = 0.0136 (Fs^2/g)^0.5m^-1
   BIGD = 0.00171 (Fs^2/g)^0.5m^-1V^-1
   CIGD =  0.075 V^-1
   POXEDGE =      1 
   AGIDL = 5.729e-12 ohm^-1
   BGIDL =  3e+08 V/m
   EGIDL =    0.1 V
   AGISL = 5.729e-12 ohm^-1
   BGISL =  3e+08 V/m
   EGISL =    0.1 V
   ALPHA0 =      0 mV^-1
   ALPHA1 =      0 V^-1
   BETA0 =     30 V^-1
   ALPHAII =      0 
   BETAII0 =      0 V^-1
   BETAII1 =      0 
   BETAII2 =    0.1 V
   ESATII =  1e+07 V/m
   LII =  5e-10 V/m
   SII0 =    0.5 V^-1
   SII1 =    0.1 
   SII2 =      0 V
   SIID =      0 V
   EOTACC = 8.4e-10 m
   DELVFBACC =      0 V
   CFS = 2.56e-11 F/m
   CFD = 2.65e-11 F/m
   COVS = 2.5e-11 F/m
   COVD = 2.5e-11 F/m
   CGSO =      0 F/m
   CGDO =      0 F/m
   CGSL =      0 F/m
   CGDL =      0 F/m
   CKAPPAS =    0.6 V
   CKAPPAD =    0.6 V
   CGBO =      0 F/m
   CGBL =      0 F/m
   CKAPPAB =    0.6 V
   CSDESW =      0 F/m
   CJS = 0.0005 F/m^2
   CJD = 0.0005 F/m^2
   CJSWS =  5e-10 F/m
   CJSWD =  5e-10 F/m
   CJSWGS =      0 F/m
   CJSWGD =      0 F/m
   PBS =      1 V
   PBD =      1 V
   PBSWS =      1 V
   PBSWD =      1 V
   PBSWGS =      1 V
   PBSWGD =      1 V
   MJS, =    0.5 
   MJD =    0.5 
   MJSWS =   0.33 
   MJSWD =   0.33 
   MJSWGS =   0.33 
   MJSWGD =   0.33 
   SJS =      0 
   SJD =      0 
   SJSWS =      0 
   SJSWD =      0 
   SJSWGS =      0 
   SJSWGD =      0 
   MJS2 =  0.125 
   MJD2 =  0.125 
   MJSWS2 =   0.33 
   MJSWD2 =   0.33 
   MJSWGS2 =   0.33 
   MJSWGD2 =   0.33 
   JSS = 0.0001 A/m^2
   JSD = 0.0001 A/m^2
   JSWS =      0 A/m
   JSWD =      0 A/m
   JSWGS =      0 A/m
   JSWGD =      0 A/m
   NJS =      1 
   NJD =      1 
   IJTHSFWD =    0.1 A
   IJTHDFWD =    0.1 A
   IJTHSREV =    0.1 A
   IJTHDREV =    0.1 A
   BVS =     10 V
   BVD =     10 V
   XJBVS =      1 
   XJBVD =      1 
   JTSS =      0 A/m^2
   JTSD =      0 A/m^2
   JTSSWS =      0 A/m
   JTSSWD =      0 A/m
   JTSSWGS =      0 A/m
   JTSSWGD =      0 A/m
   JTWEFF =      0 m
   NJTS =     20 
   NJTSD =     20 
   NJTSSW =     20 
   NJTSSWD =     20 
   NJTSSWG =     20 
   NJTSSWGD =     20 
   VTSS =     10 V
   VTSD =     10 V
   VTSSWS =     10 V
   VTSSWD =     10 V
   VTSSWGS =     10 V
   VTSSWGD =     10 V
   LINTIGEN =      0 m
   NTGEN =      1 
   AIGEN =      0 m^-3V^-1
   BIGEN =      0 m^-3V^-3
   XRCRG1 =     12 
   XRCRG2 =      1 
   NSEG = 5 
   EF =      1 
   EM = 4.1e+07 V/m
   NOIA = 6.25e+39 eV^-1s^1-EFm^-3
   NOIB = 3.125e+24 eV^-1s^1-EFm^-1
   NOIC = 8.75e+07 eV^-1s^1-EFm
   NTNOI =      1 
   TNOM =  300.1 K
   TBGASUB = 0.000702 eV/K
   TBGBSUB =   1108 K
   KT1 =      0 V
   KT1L =      0 Vm
   IIT =   -0.5 
   TII =      0 
   TGIDL = -0.0003 K^-1
   IGT =    2.5 
   TCJ =      0 K^-1
   TCJSW =      0 K^-1
   TCJSWG =      0 K^-1
   TPB =      0 K^-1
   TPBSW =      0 K^-1
   TPBSWG =      0 K^-1
   XTIS =      3 
   XTID =      3 
   XTSS =   0.02 
   XTSD =   0.02 
   XTSSWS =   0.02 
   XTSSWD =   0.02 
   XTSSWGS =   0.02 
   XTSSWGD =   0.02 
   TNJTS =      0 
   TNJTSD =      0 
   TNJTSSW =      0 
   TNJTSSWD =      0 
   TNJTSSWG =      0 
   TNJTSSWGD =      0 
   RTH0 =   0.01 ohm
   CTH0 =  1e-05 F
   WTH0 =      0 m
   LNBODY =      0 
   NNBODY =      0 
   PNBODY =      0 
   LPHIG =      0 
   NPHIG =      0 
   PPHIG =      0 
   LNGATE =      0 
   NNGATE =      0 
   PNGATE =      0 
   LCIT =      0 
   NCIT =      0 
   PCIT =      0 
   LCDSC =      0 
   NCDSC =      0 
   PCDSC =      0 
   LCDSCD =      0 
   NCDSCD =      0 
   PCDSCD =      0 
   LCDSCDR =      0 
   NCDSCDR =      0 
   PCDSCDR =      0 
   LDVT0 =      0 
   NDVT0 =      0 
   PDVT0 =      0 
   LDVT1 =      0 
   NDVT1 =      0 
   PDVT1 =      0 
   LPHIN =      0 
   NPHIN =      0 
   PPHIN =      0 
   LETA0 =      0 
   NETA0 =      0 
   PETA0 =      0 
   LETA0R =      0 
   NETA0R =      0 
   PETA0R =      0 
   LDSUB =      0 
   NDSUB =      0 
   PDSUB =      0 
   LK1RSCE =      0 
   NK1RSCE =      0 
   PK1RSCE =      0 
   LLPE0 =      0 
   NLPE0 =      0 
   PLPE0 =      0 
   LQMFACTOR =      0 
   NQMFACTOR =      0 
   PQMFACTOR =      0 
   LQMTCENIV =      0 
   NQMTCENIV =      0 
   PQMTCENIV =      0 
   LQMTCENCV =      0 
   NQMTCENCV =      0 
   PQMTCENCV =      0 
   LVSAT =      0 
   NVSAT =      0 
   PVSAT =      0 
   LKSATIV =      0 
   NKSATIV =      0 
   PKSATIV =      0 
   LMEXP =      0 
   NMEXP =      0 
   PMEXP =      0 
   LPTWG =      0 
   NPTWG =      0 
   PPTWG =      0 
   LTHETASAT =      0 
   NTHETASAT =      0 
   PTHETASAT =      0 
   LU0 =      0 
   NU0 =      0 
   PU0 =      0 
   LUP =      0 
   NUP =      0 
   PUP =      0 
   LUA =      0 
   NUA =      0 
   PUA =      0 
   LEU =      0 
   NEU =      0 
   PEU =      0 
   LUD =      0 
   NUD =      0 
   PUD =      0 
   LUCS =      0 
   NUCS =      0 
   PUCS =      0 
   LPCLM =      0 
   NPCLM =      0 
   PPCLM =      0 
   LPCLMCV =      0 
   NPCLMCV =      0 
   PPCLMCV =      0 
   LRDSW =      0 
   NRDSW =      0 
   PRDSW =      0 
   LRSW =      0 
   NRSW =      0 
   PRSW =      0 
   LRDW =      0 
   NRDW =      0 
   PRDW =      0 
   LPRWG =      0 
   NPRWG =      0 
   PPRWG =      0 
   LWR =      0 
   NWR =      0 
   PWR =      0 
   LPDIBL1 =      0 
   NPDIBL1 =      0 
   PPDIBL1 =      0 
   LPDIBL2 =      0 
   NPDIBL2 =      0 
   PPDIBL2 =      0 
   LDROUT =      0 
   NDROUT =      0 
   PDROUT =      0 
   LPVAG =      0 
   NPVAG =      0 
   PPVAG =      0 
   LAIGBINV =      0 
   NAIGBINV =      0 
   PAIGBINV =      0 
   LBIGBINV =      0 
   NBIGBINV =      0 
   PBIGBINV =      0 
   LCIGBINV =      0 
   NCIGBINV =      0 
   PCIGBINV =      0 
   LEIGBINV =      0 
   NEIGBINV =      0 
   PEIGBINV =      0 
   LNIGBINV =      0 
   NNIGBINV =      0 
   PNIGBINV =      0 
   LAIGC =      0 
   NAIGC =      0 
   PAIGC =      0 
   LBIGC =      0 
   NBIGC =      0 
   PBIGC =      0 
   LCIGC =      0 
   NCIGC =      0 
   PCIGC =      0 
   LNIGC =      0 
   NNIGC =      0 
   PNIGC =      0 
   LAIGS =      0 
   NAIGS =      0 
   PAIGS =      0 
   LBIGS =      0 
   NBIGS =      0 
   PBIGS =      0 
   LCIGS =      0 
   NCIGS =      0 
   PCIGS =      0 
   LAIGD =      0 
   NAIGD =      0 
   PAIGD =      0 
   LBIGD =      0 
   NBIGD =      0 
   PBIGD =      0 
   LCIGD =      0 
   NCIGD =      0 
   PCIGD =      0 
   LPOXEDGE =      0 
   NPOXEDGE =      0 
   PPOXEDGE =      0 
   LAGIDL =      0 
   NAGIDL =      0 
   PAGIDL =      0 
   LBGIDL =      0 
   NBGIDL =      0 
   PBGIDL =      0 
   LEGIDL =      0 
   NEGIDL =      0 
   PEGIDL =      0 
   LAGISL =      0 
   NAGISL =      0 
   PAGISL =      0 
   LBGISL =      0 
   NBGISL =      0 
   PBGISL =      0 
   LEGISL =      0 
   NEGISL =      0 
   PEGISL =      0 
   LALPHA0 =      0 
   NALPHA0 =      0 
   PALPHA0 =      0 
   LALPHA1 =      0 
   NALPHA1 =      0 
   PALPHA1 =      0 
   LBETA0 =      0 
   NBETA0 =      0 
   PBETA0 =      0 
   LALPHAII =      0 
   NALPHAII =      0 
   PALPHAII =      0 
   LBETAII0 =      0 
   NBETAII0 =      0 
   PBETAII0 =      0 
   LBETAII1 =      0 
   NBETAII1 =      0 
   PBETAII1 =      0 
   LBETAII2 =      0 
   NBETAII2 =      0 
   PBETAII2 =      0 
   LESATII =      0 
   NESATII =      0 
   PESATII =      0 
   LLII =      0 
   NLII =      0 
   PLII =      0 
   LSII0 =      0 
   NSII0 =      0 
   PSII0 =      0 
   LSII1 =      0 
   NSII1 =      0 
   PSII1 =      0 
   LSII2 =      0 
   NSII2 =      0 
   PSII2 =      0 
   LSIID =      0 
   NSIID =      0 
   PSIID =      0 
   LCFS =      0 
   NCFS =      0 
   PCFS =      0 
   LCFD =      0 
   NCFD =      0 
   PCFD =      0 
   LCOVS =      0 
   NCOVS =      0 
   PCOVS =      0 
   LCOVD =      0 
   NCOVD =      0 
   PCOVD =      0 
   LCGSL =      0 
   NCGSL =      0 
   PCGSL =      0 
   LCGDL =      0 
   NCGDL =      0 
   PCGDL =      0 
   LCKAPPAS =      0 
   NCKAPPAS =      0 
   PCKAPPAS =      0 
   LCKAPPAD =      0 
   NCKAPPAD =      0 
   PCKAPPAD =      0 
   LCGBL =      0 
   NCGBL =      0 
   PCGBL =      0 
   LCKAPPAB =      0 
   NCKAPPAB =      0 
   PCKAPPAB =      0 
   LNTGEN =      0 
   NNTGEN =      0 
   PNTGEN =      0 
   LAIGEN =      0 
   NAIGEN =      0 
   PAIGEN =      0 
   LBIGEN =      0 
   NBIGEN =      0 
   PBIGEN =      0 
   LXRCRG1 =      0 
   NXRCRG1 =      0 
   PXRCRG1 =      0 
   LXRCRG2 =      0 
   NXRCRG2 =      0 
   PXRCRG2 =      0 
   LINTNOI =      0 
   NINTNOI =      0 
   PINTNOI =      0 
   LUTE =      0 
   NUTE =      0 
   PUTE =      0 
   LUTL =      0 
   NUTL =      0 
   PUTL =      0 
   LUA1 =      0 
   NUA1 =      0 
   PUA1 =      0 
   LUD1 =      0 
   NUD1 =      0 
   PUD1 =      0 
   LUCSTE =      0 
   NUCSTE =      0 
   PUCSTE =      0 
   LPTWGT =      0 
   NPTWGT =      0 
   PPTWGT =      0 
   LAT =      0 
   NAT =      0 
   PAT =      0 
   LSTTHETASAT =      0 
   NSTTHETASAT =      0 
   PSTTHETASAT =      0 
   LPRT =      0 
   NPRT =      0 
   PPRT =      0 
   LIIT =      0 
   NIIT =      0 
   PIIT =      0 
   LTII =      0 
   NTII =      0 
   PTII =      0 
   LTGIDL =      0 
   NTGIDL =      0 
   PTGIDL =      0 
   LIGT =      0 
   NIGT =      0 
   PIGT =      0 
   L = 2.4e-08 m
   D =  4e-08 m
   TFIN = 1.5e-08 m
   FPITCH =  6e-08 m
   NF = 1 
   NFIN = 1 
   NGCON = 1 
   ASEO =      0 m^2
   ADEO =      0 m^2
   PSEO =      0 m
   PDEO =      0 m
   ASEJ =      0 m^2
   ADEJ =      0 m^2
   PSEJ =      0 m
   PDEJ =      0 m
   CGSP =      0 F
   CGDP =      0 F
   CDSP =      0 F
   NRS =      0 
   NRD =      0 
   LRSD = 2.4e-08 m
   XL =      0 m
   DELVTRAND =      0 
   U0MULT =      1 
   IDS0MULT =      1 
   Lmin =  1e-08 m
   Lmax = 2.4e-08 m
   NFINmin = 0 
   NFINmax = 1 
   LVSAT1 =      0 
   NVSAT1 =      0 
   PVSAT1 =      0 
   LETAMOB =      0 
   NETAMOB =      0 
   PETAMOB =      0 
   LPCLMG =      0 
   NPCLMG =      0 
   PPCLMG =      0 
   LVASAT =      0 
   NVASAT =      0 
   PVASAT =      0 
   LAIGBACC =      0 
   NAIGBACC =      0 
   PAIGBACC =      0 
   LBIGBACC =      0 
   NBIGBACC =      0 
   PBIGBACC =      0 
   LCIGBACC =      0 
   NCIGBACC =      0 
   PCIGBACC =      0 
   LNIGBACC =      0 
   NNIGBACC =      0 
   PNIGBACC =      0 
 Model Name: nfet 
 BSIM-MG BULK Model(Level72)
   VERSION = 105.03  
   DEVTYPE = 1 
   BULKMOD = 1  
   COREMOD = 0 
   GEOMOD = 1 
   RDSMOD = 1 
   IGCMOD = 1 
   IGBMOD = 1 
   GIDLMOD = 0 
   IIMOD = 0 
   NQSMOD = 0 
   SHMOD = 0 
   RGATEMOD = 0 
   RGEOMOD = 1 
   CGEOMOD = 2 
   CAPMOD = 0 
   LINT =  1e-09 m
   LL =      0 m^(LLN+1)
   LLN =      1 
   DLC =      0 m
   DLBIN =      0 
   LLC =      0 m^(LLN+1)
   EOT = 8.4e-10 m
   TOXP = 1.4e-09 m
   EOTBOX = 1.4e-07 m
   HFIN = 2.8e-08 m
   FECH =      1 
   DELTAW =      0 m
   FECHCV =      1 
   DELTAWCV =      0 m
   NBODY =  5e+23 m^-3
   NSD =  3e+26 m^-3
   PHIG =  4.375 eV
   EPSROX =    3.9 
   EPSRSUB =   11.9 
   EASUB =   4.05 eV
   NI0SUB = 1.1e+16 m^-3
   BG0SUB =   1.12 eV
   NC0SUB = 2.86e+25 m^-3
   NGATE =      0 m^-3
   CIT = 1.3e-05 F/m^2
   CDSC = 0.0132 F/m^2
   CDSCD =  0.007 F/m^2
   CDSCDR =  0.007 
   DVT0 =   0.01 
   DVT1 =   0.69 
   PHIN =   0.05 V
   ETA0 = 0.5063 
   ETA0R = 0.5063 
   DSUB =    0.9 
   K1RSCE =      0 V^1/2
   LPE0 =  5e-09 m
   DVTSHIFT =      0 
   QMFACTOR =      0 
   QMTCENIV =      0 
   QMTCENCV =      0 
   AQMTCEN =      0 
   BQMTCEN = 1.2e-08 
   ETAQM =   0.54 
   QM0 = 0.001143 
   PQM =   0.66 
   QM0ACC =  0.001 
   PQMACC =   0.66 
   VSAT = 8.5e+04 
   AVSAT =      0 
   BVSAT =  1e-07 
   VSAT1 = 8.5e+04 
   AVSAT1 =      0 
   BVSAT1 =  1e-07 
   DELTAVSAT =      1 
   KSATIV =    0.8 
   MEXP =      3 
   AMEXP =      0 
   BMEXP =      1 
   PTWG =      0 
   APTWG =      0 
   BPTWG =  1e-07 
   AT = -0.00156 
   TMEXP =      0 
   PTWGT =  0.004 
   U0 =  0.038 
   ETAMOB =      2 
   UP =      0 
   LPA =      1 
   UA =    0.3 
   AUA =      0 
   BUA =  1e-07 
   EU =    1.8 
   AEU =      0 
   BEU =  1e-07 
   UD =      0 
   AUD =      0 
   BUD =  5e-08 
   UCS =      0 
   UTE =      0 
   UTL = -0.0015 
   UA1 = 0.001032 
   UD1 =      0 
   UCSTE = -0.00478 
   RDSWMIN =      0 
   RDSW =    100 
   ARDSW =      0 
   BRDSW =  1e-07 
   RSWMIN =      0 
   RSW =      0 
   ARSW =      0 
   BRSW =  1e-07 
   RDWMIN =      0 
   RDW =      0 
   ARDW =      0 
   BRDW =  1e-07 
   PRWG =      0 
   WR =      1 
   PRT =  0.001 
   PDIBL1 =    1.3 
   PDIBL2 = 0.0002 
   DROUT =   1.06 
   PVAG =      1 
   PCLM =    0.2 
   APCLM =      0 
   BPCLM =  1e-07 
   PCLMG =      0 
   VASAT =    0.6 
   PCLMCV =  0.013 
   PCLMGCV =      0 
   VASATCV =    0.2 
   RGEXT =      0 ohm
   RGFIN =  0.001 ohm
   RSHS =      0 ohm
   RSHD =      0 ohm
   HEPI =  1e-08 m
   TSILI =  1e-08 m
   RHOC =  4e-12 ohm/m^2
   RHORSD =      1 ohm/m
   RHOEXT =      1 ohm/m
   CRATIO =    0.5 
   DELTAPRSD =      0 m
   SDTERM = 0 
   LSP = 4.8e-09 m
   LDG =  3e-09 m
   EPSRSP =    3.9 
   TGATE =  1e-08 m
   TMASK =      0 m
   ASILIEND =      0 m^2
   ARSDEND =      0 m^2
   PRSDEND =      0 m
   NSDE =  3e+25 m^-3
   RGEOA =      1 
   RGEOB =      0 m^-1
   RGEOC =      0 m^-1
   RGEOD =      0 m^-1
   RGEOE =      0 m^-1
   CGEOA =      1 
   CGEOB =      0 m^-1
   CGEOC =      0 m^-1
   CGEOD =      0 m^-1
   CGEOE =      1 
   AIGBINV = 0.0111 (Fs^2/g)^0.5m^-1
   BIGBINV =   0.03 (Fs^2/g)^0.5m^-1
   CIGBINV =  0.006 V^-1
   EIGBINV =    1.1 V
   NIGBINV =    1.2 
   AIGBACC = 0.0149 
   BIGBACC = 0.000949 
   CIGBACC =  0.075 
   NIGBACC =      3 
   AIGC = 0.0136 (Fs^2/g)^0.5m^-1
   BIGC = 0.00171 (Fs^2/g)^0.5m^-1V^-1
   CIGC =  0.075 V^-1
   NIGC =      1 
   DLCIGS =      0 m
   AIGS = 0.0136 (Fs^2/g)^0.5m^-1
   BIGS = 0.00171 (Fs^2/g)^0.5m^-1V^-1
   CIGS =  0.075 V^-1
   DLCIGD =      0 m
   AIGD = 0.0136 (Fs^2/g)^0.5m^-1
   BIGD = 0.00171 (Fs^2/g)^0.5m^-1V^-1
   CIGD =  0.075 V^-1
   POXEDGE =      1 
   AGIDL = 5.729e-12 ohm^-1
   BGIDL =  3e+08 V/m
   EGIDL =    0.1 V
   AGISL = 5.729e-12 ohm^-1
   BGISL =  3e+08 V/m
   EGISL =    0.1 V
   ALPHA0 =      0 mV^-1
   ALPHA1 =      0 V^-1
   BETA0 =     30 V^-1
   ALPHAII =      0 
   BETAII0 =      0 V^-1
   BETAII1 =      0 
   BETAII2 =    0.1 V
   ESATII =  1e+07 V/m
   LII =  5e-10 V/m
   SII0 =    0.5 V^-1
   SII1 =    0.1 
   SII2 =      0 V
   SIID =      0 V
   EOTACC = 8.4e-10 m
   DELVFBACC =      0 V
   CFS = 2.56e-11 F/m
   CFD = 2.65e-11 F/m
   COVS = 2.5e-11 F/m
   COVD = 2.5e-11 F/m
   CGSO =      0 F/m
   CGDO =      0 F/m
   CGSL =      0 F/m
   CGDL =      0 F/m
   CKAPPAS =    0.6 V
   CKAPPAD =    0.6 V
   CGBO =      0 F/m
   CGBL =      0 F/m
   CKAPPAB =    0.6 V
   CSDESW =      0 F/m
   CJS = 0.0005 F/m^2
   CJD = 0.0005 F/m^2
   CJSWS =  5e-10 F/m
   CJSWD =  5e-10 F/m
   CJSWGS =      0 F/m
   CJSWGD =      0 F/m
   PBS =      1 V
   PBD =      1 V
   PBSWS =      1 V
   PBSWD =      1 V
   PBSWGS =      1 V
   PBSWGD =      1 V
   MJS, =    0.5 
   MJD =    0.5 
   MJSWS =   0.33 
   MJSWD =   0.33 
   MJSWGS =   0.33 
   MJSWGD =   0.33 
   SJS =      0 
   SJD =      0 
   SJSWS =      0 
   SJSWD =      0 
   SJSWGS =      0 
   SJSWGD =      0 
   MJS2 =  0.125 
   MJD2 =  0.125 
   MJSWS2 =   0.33 
   MJSWD2 =   0.33 
   MJSWGS2 =   0.33 
   MJSWGD2 =   0.33 
   JSS = 0.0001 A/m^2
   JSD = 0.0001 A/m^2
   JSWS =      0 A/m
   JSWD =      0 A/m
   JSWGS =      0 A/m
   JSWGD =      0 A/m
   NJS =      1 
   NJD =      1 
   IJTHSFWD =    0.1 A
   IJTHDFWD =    0.1 A
   IJTHSREV =    0.1 A
   IJTHDREV =    0.1 A
   BVS =     10 V
   BVD =     10 V
   XJBVS =      1 
   XJBVD =      1 
   JTSS =      0 A/m^2
   JTSD =      0 A/m^2
   JTSSWS =      0 A/m
   JTSSWD =      0 A/m
   JTSSWGS =      0 A/m
   JTSSWGD =      0 A/m
   JTWEFF =      0 m
   NJTS =     20 
   NJTSD =     20 
   NJTSSW =     20 
   NJTSSWD =     20 
   NJTSSWG =     20 
   NJTSSWGD =     20 
   VTSS =     10 V
   VTSD =     10 V
   VTSSWS =     10 V
   VTSSWD =     10 V
   VTSSWGS =     10 V
   VTSSWGD =     10 V
   LINTIGEN =      0 m
   NTGEN =      1 
   AIGEN =      0 m^-3V^-1
   BIGEN =      0 m^-3V^-3
   XRCRG1 =     12 
   XRCRG2 =      1 
   NSEG = 5 
   EF =      1 
   EM = 4.1e+07 V/m
   NOIA = 6.25e+39 eV^-1s^1-EFm^-3
   NOIB = 3.125e+24 eV^-1s^1-EFm^-1
   NOIC = 8.75e+07 eV^-1s^1-EFm
   NTNOI =      1 
   TNOM =  300.1 K
   TBGASUB = 0.000702 eV/K
   TBGBSUB =   1108 K
   KT1 =      0 V
   KT1L =      0 Vm
   IIT =   -0.5 
   TII =      0 
   TGIDL = -0.0003 K^-1
   IGT =    2.5 
   TCJ =      0 K^-1
   TCJSW =      0 K^-1
   TCJSWG =      0 K^-1
   TPB =      0 K^-1
   TPBSW =      0 K^-1
   TPBSWG =      0 K^-1
   XTIS =      3 
   XTID =      3 
   XTSS =   0.02 
   XTSD =   0.02 
   XTSSWS =   0.02 
   XTSSWD =   0.02 
   XTSSWGS =   0.02 
   XTSSWGD =   0.02 
   TNJTS =      0 
   TNJTSD =      0 
   TNJTSSW =      0 
   TNJTSSWD =      0 
   TNJTSSWG =      0 
   TNJTSSWGD =      0 
   RTH0 =   0.01 ohm
   CTH0 =  1e-05 F
   WTH0 =      0 m
   LNBODY =      0 
   NNBODY =      0 
   PNBODY =      0 
   LPHIG =      0 
   NPHIG =      0 
   PPHIG =      0 
   LNGATE =      0 
   NNGATE =      0 
   PNGATE =      0 
   LCIT =      0 
   NCIT =      0 
   PCIT =      0 
   LCDSC =      0 
   NCDSC =      0 
   PCDSC =      0 
   LCDSCD =      0 
   NCDSCD =      0 
   PCDSCD =      0 
   LCDSCDR =      0 
   NCDSCDR =      0 
   PCDSCDR =      0 
   LDVT0 =      0 
   NDVT0 =      0 
   PDVT0 =      0 
   LDVT1 =      0 
   NDVT1 =      0 
   PDVT1 =      0 
   LPHIN =      0 
   NPHIN =      0 
   PPHIN =      0 
   LETA0 =      0 
   NETA0 =      0 
   PETA0 =      0 
   LETA0R =      0 
   NETA0R =      0 
   PETA0R =      0 
   LDSUB =      0 
   NDSUB =      0 
   PDSUB =      0 
   LK1RSCE =      0 
   NK1RSCE =      0 
   PK1RSCE =      0 
   LLPE0 =      0 
   NLPE0 =      0 
   PLPE0 =      0 
   LQMFACTOR =      0 
   NQMFACTOR =      0 
   PQMFACTOR =      0 
   LQMTCENIV =      0 
   NQMTCENIV =      0 
   PQMTCENIV =      0 
   LQMTCENCV =      0 
   NQMTCENCV =      0 
   PQMTCENCV =      0 
   LVSAT =      0 
   NVSAT =      0 
   PVSAT =      0 
   LKSATIV =      0 
   NKSATIV =      0 
   PKSATIV =      0 
   LMEXP =      0 
   NMEXP =      0 
   PMEXP =      0 
   LPTWG =      0 
   NPTWG =      0 
   PPTWG =      0 
   LTHETASAT =      0 
   NTHETASAT =      0 
   PTHETASAT =      0 
   LU0 =      0 
   NU0 =      0 
   PU0 =      0 
   LUP =      0 
   NUP =      0 
   PUP =      0 
   LUA =      0 
   NUA =      0 
   PUA =      0 
   LEU =      0 
   NEU =      0 
   PEU =      0 
   LUD =      0 
   NUD =      0 
   PUD =      0 
   LUCS =      0 
   NUCS =      0 
   PUCS =      0 
   LPCLM =      0 
   NPCLM =      0 
   PPCLM =      0 
   LPCLMCV =      0 
   NPCLMCV =      0 
   PPCLMCV =      0 
   LRDSW =      0 
   NRDSW =      0 
   PRDSW =      0 
   LRSW =      0 
   NRSW =      0 
   PRSW =      0 
   LRDW =      0 
   NRDW =      0 
   PRDW =      0 
   LPRWG =      0 
   NPRWG =      0 
   PPRWG =      0 
   LWR =      0 
   NWR =      0 
   PWR =      0 
   LPDIBL1 =      0 
   NPDIBL1 =      0 
   PPDIBL1 =      0 
   LPDIBL2 =      0 
   NPDIBL2 =      0 
   PPDIBL2 =      0 
   LDROUT =      0 
   NDROUT =      0 
   PDROUT =      0 
   LPVAG =      0 
   NPVAG =      0 
   PPVAG =      0 
   LAIGBINV =      0 
   NAIGBINV =      0 
   PAIGBINV =      0 
   LBIGBINV =      0 
   NBIGBINV =      0 
   PBIGBINV =      0 
   LCIGBINV =      0 
   NCIGBINV =      0 
   PCIGBINV =      0 
   LEIGBINV =      0 
   NEIGBINV =      0 
   PEIGBINV =      0 
   LNIGBINV =      0 
   NNIGBINV =      0 
   PNIGBINV =      0 
   LAIGC =      0 
   NAIGC =      0 
   PAIGC =      0 
   LBIGC =      0 
   NBIGC =      0 
   PBIGC =      0 
   LCIGC =      0 
   NCIGC =      0 
   PCIGC =      0 
   LNIGC =      0 
   NNIGC =      0 
   PNIGC =      0 
   LAIGS =      0 
   NAIGS =      0 
   PAIGS =      0 
   LBIGS =      0 
   NBIGS =      0 
   PBIGS =      0 
   LCIGS =      0 
   NCIGS =      0 
   PCIGS =      0 
   LAIGD =      0 
   NAIGD =      0 
   PAIGD =      0 
   LBIGD =      0 
   NBIGD =      0 
   PBIGD =      0 
   LCIGD =      0 
   NCIGD =      0 
   PCIGD =      0 
   LPOXEDGE =      0 
   NPOXEDGE =      0 
   PPOXEDGE =      0 
   LAGIDL =      0 
   NAGIDL =      0 
   PAGIDL =      0 
   LBGIDL =      0 
   NBGIDL =      0 
   PBGIDL =      0 
   LEGIDL =      0 
   NEGIDL =      0 
   PEGIDL =      0 
   LAGISL =      0 
   NAGISL =      0 
   PAGISL =      0 
   LBGISL =      0 
   NBGISL =      0 
   PBGISL =      0 
   LEGISL =      0 
   NEGISL =      0 
   PEGISL =      0 
   LALPHA0 =      0 
   NALPHA0 =      0 
   PALPHA0 =      0 
   LALPHA1 =      0 
   NALPHA1 =      0 
   PALPHA1 =      0 
   LBETA0 =      0 
   NBETA0 =      0 
   PBETA0 =      0 
   LALPHAII =      0 
   NALPHAII =      0 
   PALPHAII =      0 
   LBETAII0 =      0 
   NBETAII0 =      0 
   PBETAII0 =      0 
   LBETAII1 =      0 
   NBETAII1 =      0 
   PBETAII1 =      0 
   LBETAII2 =      0 
   NBETAII2 =      0 
   PBETAII2 =      0 
   LESATII =      0 
   NESATII =      0 
   PESATII =      0 
   LLII =      0 
   NLII =      0 
   PLII =      0 
   LSII0 =      0 
   NSII0 =      0 
   PSII0 =      0 
   LSII1 =      0 
   NSII1 =      0 
   PSII1 =      0 
   LSII2 =      0 
   NSII2 =      0 
   PSII2 =      0 
   LSIID =      0 
   NSIID =      0 
   PSIID =      0 
   LCFS =      0 
   NCFS =      0 
   PCFS =      0 
   LCFD =      0 
   NCFD =      0 
   PCFD =      0 
   LCOVS =      0 
   NCOVS =      0 
   PCOVS =      0 
   LCOVD =      0 
   NCOVD =      0 
   PCOVD =      0 
   LCGSL =      0 
   NCGSL =      0 
   PCGSL =      0 
   LCGDL =      0 
   NCGDL =      0 
   PCGDL =      0 
   LCKAPPAS =      0 
   NCKAPPAS =      0 
   PCKAPPAS =      0 
   LCKAPPAD =      0 
   NCKAPPAD =      0 
   PCKAPPAD =      0 
   LCGBL =      0 
   NCGBL =      0 
   PCGBL =      0 
   LCKAPPAB =      0 
   NCKAPPAB =      0 
   PCKAPPAB =      0 
   LNTGEN =      0 
   NNTGEN =      0 
   PNTGEN =      0 
   LAIGEN =      0 
   NAIGEN =      0 
   PAIGEN =      0 
   LBIGEN =      0 
   NBIGEN =      0 
   PBIGEN =      0 
   LXRCRG1 =      0 
   NXRCRG1 =      0 
   PXRCRG1 =      0 
   LXRCRG2 =      0 
   NXRCRG2 =      0 
   PXRCRG2 =      0 
   LINTNOI =      0 
   NINTNOI =      0 
   PINTNOI =      0 
   LUTE =      0 
   NUTE =      0 
   PUTE =      0 
   LUTL =      0 
   NUTL =      0 
   PUTL =      0 
   LUA1 =      0 
   NUA1 =      0 
   PUA1 =      0 
   LUD1 =      0 
   NUD1 =      0 
   PUD1 =      0 
   LUCSTE =      0 
   NUCSTE =      0 
   PUCSTE =      0 
   LPTWGT =      0 
   NPTWGT =      0 
   PPTWGT =      0 
   LAT =      0 
   NAT =      0 
   PAT =      0 
   LSTTHETASAT =      0 
   NSTTHETASAT =      0 
   PSTTHETASAT =      0 
   LPRT =      0 
   NPRT =      0 
   PPRT =      0 
   LIIT =      0 
   NIIT =      0 
   PIIT =      0 
   LTII =      0 
   NTII =      0 
   PTII =      0 
   LTGIDL =      0 
   NTGIDL =      0 
   PTGIDL =      0 
   LIGT =      0 
   NIGT =      0 
   PIGT =      0 
   L = 2.4e-08 m
   D =  4e-08 m
   TFIN = 1.5e-08 m
   FPITCH =  6e-08 m
   NF = 1 
   NFIN = 1 
   NGCON = 1 
   ASEO =      0 m^2
   ADEO =      0 m^2
   PSEO =      0 m
   PDEO =      0 m
   ASEJ =      0 m^2
   ADEJ =      0 m^2
   PSEJ =      0 m
   PDEJ =      0 m
   CGSP =      0 F
   CGDP =      0 F
   CDSP =      0 F
   NRS =      0 
   NRD =      0 
   LRSD = 2.4e-08 m
   XL =      0 m
   DELVTRAND =      0 
   U0MULT =      1 
   IDS0MULT =      1 
   Lmin =  1e-08 m
   Lmax = 2.4e-08 m
   NFINmin = 0 
   NFINmax = 1 
   LVSAT1 =      0 
   NVSAT1 =      0 
   PVSAT1 =      0 
   LETAMOB =      0 
   NETAMOB =      0 
   PETAMOB =      0 
   LPCLMG =      0 
   NPCLMG =      0 
   PPCLMG =      0 
   LVASAT =      0 
   NVASAT =      0 
   PVASAT =      0 
   LAIGBACC =      0 
   NAIGBACC =      0 
   PAIGBACC =      0 
   LBIGBACC =      0 
   NBIGBACC =      0 
   PBIGBACC =      0 
   LCIGBACC =      0 
   NCIGBACC =      0 
   PCIGBACC =      0 
   LNIGBACC =      0 
   NNIGBACC =      0 
   PNIGBACC =      0 
 Model Name: pfet 
 BSIM-MG BULK Model(Level72)
   VERSION = 105.03  
   DEVTYPE = -1 
   BULKMOD = 1  
   COREMOD = 0 
   GEOMOD = 1 
   RDSMOD = 1 
   IGCMOD = 1 
   IGBMOD = 1 
   GIDLMOD = 0 
   IIMOD = 0 
   NQSMOD = 0 
   SHMOD = 0 
   RGATEMOD = 0 
   RGEOMOD = 1 
   CGEOMOD = 2 
   CAPMOD = 0 
   LINT =  1e-09 m
   LL =      0 m^(LLN+1)
   LLN =      1 
   DLC =      0 m
   DLBIN =      0 
   LLC =      0 m^(LLN+1)
   EOT = 8.4e-10 m
   TOXP = 1.4e-09 m
   EOTBOX = 1.4e-07 m
   HFIN = 2.8e-08 m
   FECH =      1 
   DELTAW =      0 m
   FECHCV =      1 
   DELTAWCV =      0 m
   NBODY =  5e+23 m^-3
   NSD =  3e+26 m^-3
   PHIG =  4.798 eV
   EPSROX =    3.9 
   EPSRSUB =   11.9 
   EASUB =   4.05 eV
   NI0SUB = 1.1e+16 m^-3
   BG0SUB =   1.12 eV
   NC0SUB = 2.86e+25 m^-3
   NGATE =      0 m^-3
   CIT = 1.3e-05 F/m^2
   CDSC = 0.0132 F/m^2
   CDSCD =  0.007 F/m^2
   CDSCDR =  0.007 
   DVT0 =   0.01 
   DVT1 =   0.69 
   PHIN =   0.05 V
   ETA0 =   0.71 
   ETA0R =   0.71 
   DSUB =    0.9 
   K1RSCE =      0 V^1/2
   LPE0 =  5e-09 m
   DVTSHIFT =      0 
   QMFACTOR =      0 
   QMTCENIV =      0 
   QMTCENCV =      0 
   AQMTCEN =      0 
   BQMTCEN = 1.2e-08 
   ETAQM =   0.54 
   QM0 = 0.001143 
   PQM =   0.66 
   QM0ACC =  0.001 
   PQMACC =   0.66 
   VSAT = 8.4e+04 
   AVSAT =      0 
   BVSAT =  1e-07 
   VSAT1 = 8.4e+04 
   AVSAT1 =      0 
   BVSAT1 =  1e-07 
   DELTAVSAT =      1 
   KSATIV =    0.8 
   MEXP =      3 
   AMEXP =      0 
   BMEXP =      1 
   PTWG =      0 
   APTWG =      0 
   BPTWG =  1e-07 
   AT = -0.00156 
   TMEXP =      0 
   PTWGT =  0.004 
   U0 =  0.026 
   ETAMOB =      2 
   UP =      0 
   LPA =      1 
   UA =    0.3 
   AUA =      0 
   BUA =  1e-07 
   EU =    1.8 
   AEU =      0 
   BEU =  1e-07 
   UD =      0 
   AUD =      0 
   BUD =  5e-08 
   UCS =      0 
   UTE =      0 
   UTL = -0.0015 
   UA1 = 0.001032 
   UD1 =      0 
   UCSTE = -0.00478 
   RDSWMIN =      0 
   RDSW =    100 
   ARDSW =      0 
   BRDSW =  1e-07 
   RSWMIN =      0 
   RSW =      0 
   ARSW =      0 
   BRSW =  1e-07 
   RDWMIN =      0 
   RDW =      0 
   ARDW =      0 
   BRDW =  1e-07 
   PRWG =      0 
   WR =      1 
   PRT =  0.001 
   PDIBL1 =    1.3 
   PDIBL2 = 0.0002 
   DROUT =   1.06 
   PVAG =      1 
   PCLM =    0.2 
   APCLM =      0 
   BPCLM =  1e-07 
   PCLMG =      0 
   VASAT =    0.6 
   PCLMCV =  0.013 
   PCLMGCV =      0 
   VASATCV =    0.2 
   RGEXT =      0 ohm
   RGFIN =  0.001 ohm
   RSHS =      0 ohm
   RSHD =      0 ohm
   HEPI =  1e-08 m
   TSILI =  1e-08 m
   RHOC =  5e-12 ohm/m^2
   RHORSD =      1 ohm/m
   RHOEXT =      1 ohm/m
   CRATIO =    0.5 
   DELTAPRSD =      0 m
   SDTERM = 0 
   LSP = 4.8e-09 m
   LDG =  3e-09 m
   EPSRSP =    3.9 
   TGATE =  1e-08 m
   TMASK =      0 m
   ASILIEND =      0 m^2
   ARSDEND =      0 m^2
   PRSDEND =      0 m
   NSDE =  3e+25 m^-3
   RGEOA =      1 
   RGEOB =      0 m^-1
   RGEOC =      0 m^-1
   RGEOD =      0 m^-1
   RGEOE =      0 m^-1
   CGEOA =      1 
   CGEOB =      0 m^-1
   CGEOC =      0 m^-1
   CGEOD =      0 m^-1
   CGEOE =      1 
   AIGBINV = 0.0111 (Fs^2/g)^0.5m^-1
   BIGBINV =   0.03 (Fs^2/g)^0.5m^-1
   CIGBINV =  0.006 V^-1
   EIGBINV =    1.1 V
   NIGBINV =    1.2 
   AIGBACC = 0.0149 
   BIGBACC = 0.000949 
   CIGBACC =  0.075 
   NIGBACC =      3 
   AIGC = 0.0136 (Fs^2/g)^0.5m^-1
   BIGC = 0.00171 (Fs^2/g)^0.5m^-1V^-1
   CIGC =  0.075 V^-1
   NIGC =      1 
   DLCIGS =      0 m
   AIGS = 0.0136 (Fs^2/g)^0.5m^-1
   BIGS = 0.00171 (Fs^2/g)^0.5m^-1V^-1
   CIGS =  0.075 V^-1
   DLCIGD =      0 m
   AIGD = 0.0136 (Fs^2/g)^0.5m^-1
   BIGD = 0.00171 (Fs^2/g)^0.5m^-1V^-1
   CIGD =  0.075 V^-1
   POXEDGE =      1 
   AGIDL = 5.729e-12 ohm^-1
   BGIDL =  3e+08 V/m
   EGIDL =    0.1 V
   AGISL = 5.729e-12 ohm^-1
   BGISL =  3e+08 V/m
   EGISL =    0.1 V
   ALPHA0 =      0 mV^-1
   ALPHA1 =      0 V^-1
   BETA0 =     30 V^-1
   ALPHAII =      0 
   BETAII0 =      0 V^-1
   BETAII1 =      0 
   BETAII2 =    0.1 V
   ESATII =  1e+07 V/m
   LII =  5e-10 V/m
   SII0 =    0.5 V^-1
   SII1 =    0.1 
   SII2 =      0 V
   SIID =      0 V
   EOTACC = 8.4e-10 m
   DELVFBACC =      0 V
   CFS = 2.56e-11 F/m
   CFD = 2.65e-11 F/m
   COVS = 2.5e-11 F/m
   COVD = 2.5e-11 F/m
   CGSO =      0 F/m
   CGDO =      0 F/m
   CGSL =      0 F/m
   CGDL =      0 F/m
   CKAPPAS =    0.6 V
   CKAPPAD =    0.6 V
   CGBO =      0 F/m
   CGBL =      0 F/m
   CKAPPAB =    0.6 V
   CSDESW =      0 F/m
   CJS = 0.0005 F/m^2
   CJD = 0.0005 F/m^2
   CJSWS =  5e-10 F/m
   CJSWD =  5e-10 F/m
   CJSWGS =      0 F/m
   CJSWGD =      0 F/m
   PBS =      1 V
   PBD =      1 V
   PBSWS =      1 V
   PBSWD =      1 V
   PBSWGS =      1 V
   PBSWGD =      1 V
   MJS, =    0.5 
   MJD =    0.5 
   MJSWS =   0.33 
   MJSWD =   0.33 
   MJSWGS =   0.33 
   MJSWGD =   0.33 
   SJS =      0 
   SJD =      0 
   SJSWS =      0 
   SJSWD =      0 
   SJSWGS =      0 
   SJSWGD =      0 
   MJS2 =  0.125 
   MJD2 =  0.125 
   MJSWS2 =   0.33 
   MJSWD2 =   0.33 
   MJSWGS2 =   0.33 
   MJSWGD2 =   0.33 
   JSS = 0.0001 A/m^2
   JSD = 0.0001 A/m^2
   JSWS =      0 A/m
   JSWD =      0 A/m
   JSWGS =      0 A/m
   JSWGD =      0 A/m
   NJS =      1 
   NJD =      1 
   IJTHSFWD =    0.1 A
   IJTHDFWD =    0.1 A
   IJTHSREV =    0.1 A
   IJTHDREV =    0.1 A
   BVS =     10 V
   BVD =     10 V
   XJBVS =      1 
   XJBVD =      1 
   JTSS =      0 A/m^2
   JTSD =      0 A/m^2
   JTSSWS =      0 A/m
   JTSSWD =      0 A/m
   JTSSWGS =      0 A/m
   JTSSWGD =      0 A/m
   JTWEFF =      0 m
   NJTS =     20 
   NJTSD =     20 
   NJTSSW =     20 
   NJTSSWD =     20 
   NJTSSWG =     20 
   NJTSSWGD =     20 
   VTSS =     10 V
   VTSD =     10 V
   VTSSWS =     10 V
   VTSSWD =     10 V
   VTSSWGS =     10 V
   VTSSWGD =     10 V
   LINTIGEN =      0 m
   NTGEN =      1 
   AIGEN =      0 m^-3V^-1
   BIGEN =      0 m^-3V^-3
   XRCRG1 =     12 
   XRCRG2 =      1 
   NSEG = 5 
   EF =      1 
   EM = 4.1e+07 V/m
   NOIA = 6.25e+39 eV^-1s^1-EFm^-3
   NOIB = 3.125e+24 eV^-1s^1-EFm^-1
   NOIC = 8.75e+07 eV^-1s^1-EFm
   NTNOI =      1 
   TNOM =  300.1 K
   TBGASUB = 0.000702 eV/K
   TBGBSUB =   1108 K
   KT1 =      0 V
   KT1L =      0 Vm
   IIT =   -0.5 
   TII =      0 
   TGIDL = -0.0003 K^-1
   IGT =    2.5 
   TCJ =      0 K^-1
   TCJSW =      0 K^-1
   TCJSWG =      0 K^-1
   TPB =      0 K^-1
   TPBSW =      0 K^-1
   TPBSWG =      0 K^-1
   XTIS =      3 
   XTID =      3 
   XTSS =   0.02 
   XTSD =   0.02 
   XTSSWS =   0.02 
   XTSSWD =   0.02 
   XTSSWGS =   0.02 
   XTSSWGD =   0.02 
   TNJTS =      0 
   TNJTSD =      0 
   TNJTSSW =      0 
   TNJTSSWD =      0 
   TNJTSSWG =      0 
   TNJTSSWGD =      0 
   RTH0 =   0.01 ohm
   CTH0 =  1e-05 F
   WTH0 =      0 m
   LNBODY =      0 
   NNBODY =      0 
   PNBODY =      0 
   LPHIG =      0 
   NPHIG =      0 
   PPHIG =      0 
   LNGATE =      0 
   NNGATE =      0 
   PNGATE =      0 
   LCIT =      0 
   NCIT =      0 
   PCIT =      0 
   LCDSC =      0 
   NCDSC =      0 
   PCDSC =      0 
   LCDSCD =      0 
   NCDSCD =      0 
   PCDSCD =      0 
   LCDSCDR =      0 
   NCDSCDR =      0 
   PCDSCDR =      0 
   LDVT0 =      0 
   NDVT0 =      0 
   PDVT0 =      0 
   LDVT1 =      0 
   NDVT1 =      0 
   PDVT1 =      0 
   LPHIN =      0 
   NPHIN =      0 
   PPHIN =      0 
   LETA0 =      0 
   NETA0 =      0 
   PETA0 =      0 
   LETA0R =      0 
   NETA0R =      0 
   PETA0R =      0 
   LDSUB =      0 
   NDSUB =      0 
   PDSUB =      0 
   LK1RSCE =      0 
   NK1RSCE =      0 
   PK1RSCE =      0 
   LLPE0 =      0 
   NLPE0 =      0 
   PLPE0 =      0 
   LQMFACTOR =      0 
   NQMFACTOR =      0 
   PQMFACTOR =      0 
   LQMTCENIV =      0 
   NQMTCENIV =      0 
   PQMTCENIV =      0 
   LQMTCENCV =      0 
   NQMTCENCV =      0 
   PQMTCENCV =      0 
   LVSAT =      0 
   NVSAT =      0 
   PVSAT =      0 
   LKSATIV =      0 
   NKSATIV =      0 
   PKSATIV =      0 
   LMEXP =      0 
   NMEXP =      0 
   PMEXP =      0 
   LPTWG =      0 
   NPTWG =      0 
   PPTWG =      0 
   LTHETASAT =      0 
   NTHETASAT =      0 
   PTHETASAT =      0 
   LU0 =      0 
   NU0 =      0 
   PU0 =      0 
   LUP =      0 
   NUP =      0 
   PUP =      0 
   LUA =      0 
   NUA =      0 
   PUA =      0 
   LEU =      0 
   NEU =      0 
   PEU =      0 
   LUD =      0 
   NUD =      0 
   PUD =      0 
   LUCS =      0 
   NUCS =      0 
   PUCS =      0 
   LPCLM =      0 
   NPCLM =      0 
   PPCLM =      0 
   LPCLMCV =      0 
   NPCLMCV =      0 
   PPCLMCV =      0 
   LRDSW =      0 
   NRDSW =      0 
   PRDSW =      0 
   LRSW =      0 
   NRSW =      0 
   PRSW =      0 
   LRDW =      0 
   NRDW =      0 
   PRDW =      0 
   LPRWG =      0 
   NPRWG =      0 
   PPRWG =      0 
   LWR =      0 
   NWR =      0 
   PWR =      0 
   LPDIBL1 =      0 
   NPDIBL1 =      0 
   PPDIBL1 =      0 
   LPDIBL2 =      0 
   NPDIBL2 =      0 
   PPDIBL2 =      0 
   LDROUT =      0 
   NDROUT =      0 
   PDROUT =      0 
   LPVAG =      0 
   NPVAG =      0 
   PPVAG =      0 
   LAIGBINV =      0 
   NAIGBINV =      0 
   PAIGBINV =      0 
   LBIGBINV =      0 
   NBIGBINV =      0 
   PBIGBINV =      0 
   LCIGBINV =      0 
   NCIGBINV =      0 
   PCIGBINV =      0 
   LEIGBINV =      0 
   NEIGBINV =      0 
   PEIGBINV =      0 
   LNIGBINV =      0 
   NNIGBINV =      0 
   PNIGBINV =      0 
   LAIGC =      0 
   NAIGC =      0 
   PAIGC =      0 
   LBIGC =      0 
   NBIGC =      0 
   PBIGC =      0 
   LCIGC =      0 
   NCIGC =      0 
   PCIGC =      0 
   LNIGC =      0 
   NNIGC =      0 
   PNIGC =      0 
   LAIGS =      0 
   NAIGS =      0 
   PAIGS =      0 
   LBIGS =      0 
   NBIGS =      0 
   PBIGS =      0 
   LCIGS =      0 
   NCIGS =      0 
   PCIGS =      0 
   LAIGD =      0 
   NAIGD =      0 
   PAIGD =      0 
   LBIGD =      0 
   NBIGD =      0 
   PBIGD =      0 
   LCIGD =      0 
   NCIGD =      0 
   PCIGD =      0 
   LPOXEDGE =      0 
   NPOXEDGE =      0 
   PPOXEDGE =      0 
   LAGIDL =      0 
   NAGIDL =      0 
   PAGIDL =      0 
   LBGIDL =      0 
   NBGIDL =      0 
   PBGIDL =      0 
   LEGIDL =      0 
   NEGIDL =      0 
   PEGIDL =      0 
   LAGISL =      0 
   NAGISL =      0 
   PAGISL =      0 
   LBGISL =      0 
   NBGISL =      0 
   PBGISL =      0 
   LEGISL =      0 
   NEGISL =      0 
   PEGISL =      0 
   LALPHA0 =      0 
   NALPHA0 =      0 
   PALPHA0 =      0 
   LALPHA1 =      0 
   NALPHA1 =      0 
   PALPHA1 =      0 
   LBETA0 =      0 
   NBETA0 =      0 
   PBETA0 =      0 
   LALPHAII =      0 
   NALPHAII =      0 
   PALPHAII =      0 
   LBETAII0 =      0 
   NBETAII0 =      0 
   PBETAII0 =      0 
   LBETAII1 =      0 
   NBETAII1 =      0 
   PBETAII1 =      0 
   LBETAII2 =      0 
   NBETAII2 =      0 
   PBETAII2 =      0 
   LESATII =      0 
   NESATII =      0 
   PESATII =      0 
   LLII =      0 
   NLII =      0 
   PLII =      0 
   LSII0 =      0 
   NSII0 =      0 
   PSII0 =      0 
   LSII1 =      0 
   NSII1 =      0 
   PSII1 =      0 
   LSII2 =      0 
   NSII2 =      0 
   PSII2 =      0 
   LSIID =      0 
   NSIID =      0 
   PSIID =      0 
   LCFS =      0 
   NCFS =      0 
   PCFS =      0 
   LCFD =      0 
   NCFD =      0 
   PCFD =      0 
   LCOVS =      0 
   NCOVS =      0 
   PCOVS =      0 
   LCOVD =      0 
   NCOVD =      0 
   PCOVD =      0 
   LCGSL =      0 
   NCGSL =      0 
   PCGSL =      0 
   LCGDL =      0 
   NCGDL =      0 
   PCGDL =      0 
   LCKAPPAS =      0 
   NCKAPPAS =      0 
   PCKAPPAS =      0 
   LCKAPPAD =      0 
   NCKAPPAD =      0 
   PCKAPPAD =      0 
   LCGBL =      0 
   NCGBL =      0 
   PCGBL =      0 
   LCKAPPAB =      0 
   NCKAPPAB =      0 
   PCKAPPAB =      0 
   LNTGEN =      0 
   NNTGEN =      0 
   PNTGEN =      0 
   LAIGEN =      0 
   NAIGEN =      0 
   PAIGEN =      0 
   LBIGEN =      0 
   NBIGEN =      0 
   PBIGEN =      0 
   LXRCRG1 =      0 
   NXRCRG1 =      0 
   PXRCRG1 =      0 
   LXRCRG2 =      0 
   NXRCRG2 =      0 
   PXRCRG2 =      0 
   LINTNOI =      0 
   NINTNOI =      0 
   PINTNOI =      0 
   LUTE =      0 
   NUTE =      0 
   PUTE =      0 
   LUTL =      0 
   NUTL =      0 
   PUTL =      0 
   LUA1 =      0 
   NUA1 =      0 
   PUA1 =      0 
   LUD1 =      0 
   NUD1 =      0 
   PUD1 =      0 
   LUCSTE =      0 
   NUCSTE =      0 
   PUCSTE =      0 
   LPTWGT =      0 
   NPTWGT =      0 
   PPTWGT =      0 
   LAT =      0 
   NAT =      0 
   PAT =      0 
   LSTTHETASAT =      0 
   NSTTHETASAT =      0 
   PSTTHETASAT =      0 
   LPRT =      0 
   NPRT =      0 
   PPRT =      0 
   LIIT =      0 
   NIIT =      0 
   PIIT =      0 
   LTII =      0 
   NTII =      0 
   PTII =      0 
   LTGIDL =      0 
   NTGIDL =      0 
   PTGIDL =      0 
   LIGT =      0 
   NIGT =      0 
   PIGT =      0 
   L = 2.4e-08 m
   D =  4e-08 m
   TFIN = 1.5e-08 m
   FPITCH =  6e-08 m
   NF = 1 
   NFIN = 1 
   NGCON = 1 
   ASEO =      0 m^2
   ADEO =      0 m^2
   PSEO =      0 m
   PDEO =      0 m
   ASEJ =      0 m^2
   ADEJ =      0 m^2
   PSEJ =      0 m
   PDEJ =      0 m
   CGSP =      0 F
   CGDP =      0 F
   CDSP =      0 F
   NRS =      0 
   NRD =      0 
   LRSD = 2.4e-08 m
   XL =      0 m
   DELVTRAND =      0 
   U0MULT =      1 
   IDS0MULT =      1 
   Lmin =  1e-08 m
   Lmax = 2.4e-08 m
   NFINmin = 0 
   NFINmax = 1 
   LVSAT1 =      0 
   NVSAT1 =      0 
   PVSAT1 =      0 
   LETAMOB =      0 
   NETAMOB =      0 
   PETAMOB =      0 
   LPCLMG =      0 
   NPCLMG =      0 
   PPCLMG =      0 
   LVASAT =      0 
   NVASAT =      0 
   PVASAT =      0 
   LAIGBACC =      0 
   NAIGBACC =      0 
   PAIGBACC =      0 
   LBIGBACC =      0 
   NBIGBACC =      0 
   PBIGBACC =      0 
   LCIGBACC =      0 
   NCIGBACC =      0 
   PCIGBACC =      0 
   LNIGBACC =      0 
   NNIGBACC =      0 
   PNIGBACC =      0 
 Model Name: nfet 
 BSIM-MG BULK Model(Level72)
   VERSION = 105.03  
   DEVTYPE = 1 
   BULKMOD = 1  
   COREMOD = 0 
   GEOMOD = 1 
   RDSMOD = 1 
   IGCMOD = 1 
   IGBMOD = 1 
   GIDLMOD = 0 
   IIMOD = 0 
   NQSMOD = 0 
   SHMOD = 0 
   RGATEMOD = 0 
   RGEOMOD = 1 
   CGEOMOD = 2 
   CAPMOD = 0 
   LINT =  1e-09 m
   LL =      0 m^(LLN+1)
   LLN =      1 
   DLC =      0 m
   DLBIN =      0 
   LLC =      0 m^(LLN+1)
   EOT = 8.4e-10 m
   TOXP = 1.4e-09 m
   EOTBOX = 1.4e-07 m
   HFIN = 2.8e-08 m
   FECH =      1 
   DELTAW =      0 m
   FECHCV =      1 
   DELTAWCV =      0 m
   NBODY =  5e+23 m^-3
   NSD =  3e+26 m^-3
   PHIG =  4.375 eV
   EPSROX =    3.9 
   EPSRSUB =   11.9 
   EASUB =   4.05 eV
   NI0SUB = 1.1e+16 m^-3
   BG0SUB =   1.12 eV
   NC0SUB = 2.86e+25 m^-3
   NGATE =      0 m^-3
   CIT = 1.3e-05 F/m^2
   CDSC = 0.0132 F/m^2
   CDSCD =  0.007 F/m^2
   CDSCDR =  0.007 
   DVT0 =   0.01 
   DVT1 =   0.69 
   PHIN =   0.05 V
   ETA0 = 0.5063 
   ETA0R = 0.5063 
   DSUB =    0.9 
   K1RSCE =      0 V^1/2
   LPE0 =  5e-09 m
   DVTSHIFT =      0 
   QMFACTOR =      0 
   QMTCENIV =      0 
   QMTCENCV =      0 
   AQMTCEN =      0 
   BQMTCEN = 1.2e-08 
   ETAQM =   0.54 
   QM0 = 0.001143 
   PQM =   0.66 
   QM0ACC =  0.001 
   PQMACC =   0.66 
   VSAT = 8.5e+04 
   AVSAT =      0 
   BVSAT =  1e-07 
   VSAT1 = 8.5e+04 
   AVSAT1 =      0 
   BVSAT1 =  1e-07 
   DELTAVSAT =      1 
   KSATIV =    0.8 
   MEXP =      3 
   AMEXP =      0 
   BMEXP =      1 
   PTWG =      0 
   APTWG =      0 
   BPTWG =  1e-07 
   AT = -0.00156 
   TMEXP =      0 
   PTWGT =  0.004 
   U0 =  0.038 
   ETAMOB =      2 
   UP =      0 
   LPA =      1 
   UA =    0.3 
   AUA =      0 
   BUA =  1e-07 
   EU =    1.8 
   AEU =      0 
   BEU =  1e-07 
   UD =      0 
   AUD =      0 
   BUD =  5e-08 
   UCS =      0 
   UTE =      0 
   UTL = -0.0015 
   UA1 = 0.001032 
   UD1 =      0 
   UCSTE = -0.00478 
   RDSWMIN =      0 
   RDSW =    100 
   ARDSW =      0 
   BRDSW =  1e-07 
   RSWMIN =      0 
   RSW =      0 
   ARSW =      0 
   BRSW =  1e-07 
   RDWMIN =      0 
   RDW =      0 
   ARDW =      0 
   BRDW =  1e-07 
   PRWG =      0 
   WR =      1 
   PRT =  0.001 
   PDIBL1 =    1.3 
   PDIBL2 = 0.0002 
   DROUT =   1.06 
   PVAG =      1 
   PCLM =    0.2 
   APCLM =      0 
   BPCLM =  1e-07 
   PCLMG =      0 
   VASAT =    0.6 
   PCLMCV =  0.013 
   PCLMGCV =      0 
   VASATCV =    0.2 
   RGEXT =      0 ohm
   RGFIN =  0.001 ohm
   RSHS =      0 ohm
   RSHD =      0 ohm
   HEPI =  1e-08 m
   TSILI =  1e-08 m
   RHOC =  4e-12 ohm/m^2
   RHORSD =      1 ohm/m
   RHOEXT =      1 ohm/m
   CRATIO =    0.5 
   DELTAPRSD =      0 m
   SDTERM = 0 
   LSP = 4.8e-09 m
   LDG =  3e-09 m
   EPSRSP =    3.9 
   TGATE =  1e-08 m
   TMASK =      0 m
   ASILIEND =      0 m^2
   ARSDEND =      0 m^2
   PRSDEND =      0 m
   NSDE =  3e+25 m^-3
   RGEOA =      1 
   RGEOB =      0 m^-1
   RGEOC =      0 m^-1
   RGEOD =      0 m^-1
   RGEOE =      0 m^-1
   CGEOA =      1 
   CGEOB =      0 m^-1
   CGEOC =      0 m^-1
   CGEOD =      0 m^-1
   CGEOE =      1 
   AIGBINV = 0.0111 (Fs^2/g)^0.5m^-1
   BIGBINV =   0.03 (Fs^2/g)^0.5m^-1
   CIGBINV =  0.006 V^-1
   EIGBINV =    1.1 V
   NIGBINV =    1.2 
   AIGBACC = 0.0149 
   BIGBACC = 0.000949 
   CIGBACC =  0.075 
   NIGBACC =      3 
   AIGC = 0.0136 (Fs^2/g)^0.5m^-1
   BIGC = 0.00171 (Fs^2/g)^0.5m^-1V^-1
   CIGC =  0.075 V^-1
   NIGC =      1 
   DLCIGS =      0 m
   AIGS = 0.0136 (Fs^2/g)^0.5m^-1
   BIGS = 0.00171 (Fs^2/g)^0.5m^-1V^-1
   CIGS =  0.075 V^-1
   DLCIGD =      0 m
   AIGD = 0.0136 (Fs^2/g)^0.5m^-1
   BIGD = 0.00171 (Fs^2/g)^0.5m^-1V^-1
   CIGD =  0.075 V^-1
   POXEDGE =      1 
   AGIDL = 5.729e-12 ohm^-1
   BGIDL =  3e+08 V/m
   EGIDL =    0.1 V
   AGISL = 5.729e-12 ohm^-1
   BGISL =  3e+08 V/m
   EGISL =    0.1 V
   ALPHA0 =      0 mV^-1
   ALPHA1 =      0 V^-1
   BETA0 =     30 V^-1
   ALPHAII =      0 
   BETAII0 =      0 V^-1
   BETAII1 =      0 
   BETAII2 =    0.1 V
   ESATII =  1e+07 V/m
   LII =  5e-10 V/m
   SII0 =    0.5 V^-1
   SII1 =    0.1 
   SII2 =      0 V
   SIID =      0 V
   EOTACC = 8.4e-10 m
   DELVFBACC =      0 V
   CFS = 2.56e-11 F/m
   CFD = 2.65e-11 F/m
   COVS = 2.5e-11 F/m
   COVD = 2.5e-11 F/m
   CGSO =      0 F/m
   CGDO =      0 F/m
   CGSL =      0 F/m
   CGDL =      0 F/m
   CKAPPAS =    0.6 V
   CKAPPAD =    0.6 V
   CGBO =      0 F/m
   CGBL =      0 F/m
   CKAPPAB =    0.6 V
   CSDESW =      0 F/m
   CJS = 0.0005 F/m^2
   CJD = 0.0005 F/m^2
   CJSWS =  5e-10 F/m
   CJSWD =  5e-10 F/m
   CJSWGS =      0 F/m
   CJSWGD =      0 F/m
   PBS =      1 V
   PBD =      1 V
   PBSWS =      1 V
   PBSWD =      1 V
   PBSWGS =      1 V
   PBSWGD =      1 V
   MJS, =    0.5 
   MJD =    0.5 
   MJSWS =   0.33 
   MJSWD =   0.33 
   MJSWGS =   0.33 
   MJSWGD =   0.33 
   SJS =      0 
   SJD =      0 
   SJSWS =      0 
   SJSWD =      0 
   SJSWGS =      0 
   SJSWGD =      0 
   MJS2 =  0.125 
   MJD2 =  0.125 
   MJSWS2 =   0.33 
   MJSWD2 =   0.33 
   MJSWGS2 =   0.33 
   MJSWGD2 =   0.33 
   JSS = 0.0001 A/m^2
   JSD = 0.0001 A/m^2
   JSWS =      0 A/m
   JSWD =      0 A/m
   JSWGS =      0 A/m
   JSWGD =      0 A/m
   NJS =      1 
   NJD =      1 
   IJTHSFWD =    0.1 A
   IJTHDFWD =    0.1 A
   IJTHSREV =    0.1 A
   IJTHDREV =    0.1 A
   BVS =     10 V
   BVD =     10 V
   XJBVS =      1 
   XJBVD =      1 
   JTSS =      0 A/m^2
   JTSD =      0 A/m^2
   JTSSWS =      0 A/m
   JTSSWD =      0 A/m
   JTSSWGS =      0 A/m
   JTSSWGD =      0 A/m
   JTWEFF =      0 m
   NJTS =     20 
   NJTSD =     20 
   NJTSSW =     20 
   NJTSSWD =     20 
   NJTSSWG =     20 
   NJTSSWGD =     20 
   VTSS =     10 V
   VTSD =     10 V
   VTSSWS =     10 V
   VTSSWD =     10 V
   VTSSWGS =     10 V
   VTSSWGD =     10 V
   LINTIGEN =      0 m
   NTGEN =      1 
   AIGEN =      0 m^-3V^-1
   BIGEN =      0 m^-3V^-3
   XRCRG1 =     12 
   XRCRG2 =      1 
   NSEG = 5 
   EF =      1 
   EM = 4.1e+07 V/m
   NOIA = 6.25e+39 eV^-1s^1-EFm^-3
   NOIB = 3.125e+24 eV^-1s^1-EFm^-1
   NOIC = 8.75e+07 eV^-1s^1-EFm
   NTNOI =      1 
   TNOM =  300.1 K
   TBGASUB = 0.000702 eV/K
   TBGBSUB =   1108 K
   KT1 =      0 V
   KT1L =      0 Vm
   IIT =   -0.5 
   TII =      0 
   TGIDL = -0.0003 K^-1
   IGT =    2.5 
   TCJ =      0 K^-1
   TCJSW =      0 K^-1
   TCJSWG =      0 K^-1
   TPB =      0 K^-1
   TPBSW =      0 K^-1
   TPBSWG =      0 K^-1
   XTIS =      3 
   XTID =      3 
   XTSS =   0.02 
   XTSD =   0.02 
   XTSSWS =   0.02 
   XTSSWD =   0.02 
   XTSSWGS =   0.02 
   XTSSWGD =   0.02 
   TNJTS =      0 
   TNJTSD =      0 
   TNJTSSW =      0 
   TNJTSSWD =      0 
   TNJTSSWG =      0 
   TNJTSSWGD =      0 
   RTH0 =   0.01 ohm
   CTH0 =  1e-05 F
   WTH0 =      0 m
   LNBODY =      0 
   NNBODY =      0 
   PNBODY =      0 
   LPHIG =      0 
   NPHIG =      0 
   PPHIG =      0 
   LNGATE =      0 
   NNGATE =      0 
   PNGATE =      0 
   LCIT =      0 
   NCIT =      0 
   PCIT =      0 
   LCDSC =      0 
   NCDSC =      0 
   PCDSC =      0 
   LCDSCD =      0 
   NCDSCD =      0 
   PCDSCD =      0 
   LCDSCDR =      0 
   NCDSCDR =      0 
   PCDSCDR =      0 
   LDVT0 =      0 
   NDVT0 =      0 
   PDVT0 =      0 
   LDVT1 =      0 
   NDVT1 =      0 
   PDVT1 =      0 
   LPHIN =      0 
   NPHIN =      0 
   PPHIN =      0 
   LETA0 =      0 
   NETA0 =      0 
   PETA0 =      0 
   LETA0R =      0 
   NETA0R =      0 
   PETA0R =      0 
   LDSUB =      0 
   NDSUB =      0 
   PDSUB =      0 
   LK1RSCE =      0 
   NK1RSCE =      0 
   PK1RSCE =      0 
   LLPE0 =      0 
   NLPE0 =      0 
   PLPE0 =      0 
   LQMFACTOR =      0 
   NQMFACTOR =      0 
   PQMFACTOR =      0 
   LQMTCENIV =      0 
   NQMTCENIV =      0 
   PQMTCENIV =      0 
   LQMTCENCV =      0 
   NQMTCENCV =      0 
   PQMTCENCV =      0 
   LVSAT =      0 
   NVSAT =      0 
   PVSAT =      0 
   LKSATIV =      0 
   NKSATIV =      0 
   PKSATIV =      0 
   LMEXP =      0 
   NMEXP =      0 
   PMEXP =      0 
   LPTWG =      0 
   NPTWG =      0 
   PPTWG =      0 
   LTHETASAT =      0 
   NTHETASAT =      0 
   PTHETASAT =      0 
   LU0 =      0 
   NU0 =      0 
   PU0 =      0 
   LUP =      0 
   NUP =      0 
   PUP =      0 
   LUA =      0 
   NUA =      0 
   PUA =      0 
   LEU =      0 
   NEU =      0 
   PEU =      0 
   LUD =      0 
   NUD =      0 
   PUD =      0 
   LUCS =      0 
   NUCS =      0 
   PUCS =      0 
   LPCLM =      0 
   NPCLM =      0 
   PPCLM =      0 
   LPCLMCV =      0 
   NPCLMCV =      0 
   PPCLMCV =      0 
   LRDSW =      0 
   NRDSW =      0 
   PRDSW =      0 
   LRSW =      0 
   NRSW =      0 
   PRSW =      0 
   LRDW =      0 
   NRDW =      0 
   PRDW =      0 
   LPRWG =      0 
   NPRWG =      0 
   PPRWG =      0 
   LWR =      0 
   NWR =      0 
   PWR =      0 
   LPDIBL1 =      0 
   NPDIBL1 =      0 
   PPDIBL1 =      0 
   LPDIBL2 =      0 
   NPDIBL2 =      0 
   PPDIBL2 =      0 
   LDROUT =      0 
   NDROUT =      0 
   PDROUT =      0 
   LPVAG =      0 
   NPVAG =      0 
   PPVAG =      0 
   LAIGBINV =      0 
   NAIGBINV =      0 
   PAIGBINV =      0 
   LBIGBINV =      0 
   NBIGBINV =      0 
   PBIGBINV =      0 
   LCIGBINV =      0 
   NCIGBINV =      0 
   PCIGBINV =      0 
   LEIGBINV =      0 
   NEIGBINV =      0 
   PEIGBINV =      0 
   LNIGBINV =      0 
   NNIGBINV =      0 
   PNIGBINV =      0 
   LAIGC =      0 
   NAIGC =      0 
   PAIGC =      0 
   LBIGC =      0 
   NBIGC =      0 
   PBIGC =      0 
   LCIGC =      0 
   NCIGC =      0 
   PCIGC =      0 
   LNIGC =      0 
   NNIGC =      0 
   PNIGC =      0 
   LAIGS =      0 
   NAIGS =      0 
   PAIGS =      0 
   LBIGS =      0 
   NBIGS =      0 
   PBIGS =      0 
   LCIGS =      0 
   NCIGS =      0 
   PCIGS =      0 
   LAIGD =      0 
   NAIGD =      0 
   PAIGD =      0 
   LBIGD =      0 
   NBIGD =      0 
   PBIGD =      0 
   LCIGD =      0 
   NCIGD =      0 
   PCIGD =      0 
   LPOXEDGE =      0 
   NPOXEDGE =      0 
   PPOXEDGE =      0 
   LAGIDL =      0 
   NAGIDL =      0 
   PAGIDL =      0 
   LBGIDL =      0 
   NBGIDL =      0 
   PBGIDL =      0 
   LEGIDL =      0 
   NEGIDL =      0 
   PEGIDL =      0 
   LAGISL =      0 
   NAGISL =      0 
   PAGISL =      0 
   LBGISL =      0 
   NBGISL =      0 
   PBGISL =      0 
   LEGISL =      0 
   NEGISL =      0 
   PEGISL =      0 
   LALPHA0 =      0 
   NALPHA0 =      0 
   PALPHA0 =      0 
   LALPHA1 =      0 
   NALPHA1 =      0 
   PALPHA1 =      0 
   LBETA0 =      0 
   NBETA0 =      0 
   PBETA0 =      0 
   LALPHAII =      0 
   NALPHAII =      0 
   PALPHAII =      0 
   LBETAII0 =      0 
   NBETAII0 =      0 
   PBETAII0 =      0 
   LBETAII1 =      0 
   NBETAII1 =      0 
   PBETAII1 =      0 
   LBETAII2 =      0 
   NBETAII2 =      0 
   PBETAII2 =      0 
   LESATII =      0 
   NESATII =      0 
   PESATII =      0 
   LLII =      0 
   NLII =      0 
   PLII =      0 
   LSII0 =      0 
   NSII0 =      0 
   PSII0 =      0 
   LSII1 =      0 
   NSII1 =      0 
   PSII1 =      0 
   LSII2 =      0 
   NSII2 =      0 
   PSII2 =      0 
   LSIID =      0 
   NSIID =      0 
   PSIID =      0 
   LCFS =      0 
   NCFS =      0 
   PCFS =      0 
   LCFD =      0 
   NCFD =      0 
   PCFD =      0 
   LCOVS =      0 
   NCOVS =      0 
   PCOVS =      0 
   LCOVD =      0 
   NCOVD =      0 
   PCOVD =      0 
   LCGSL =      0 
   NCGSL =      0 
   PCGSL =      0 
   LCGDL =      0 
   NCGDL =      0 
   PCGDL =      0 
   LCKAPPAS =      0 
   NCKAPPAS =      0 
   PCKAPPAS =      0 
   LCKAPPAD =      0 
   NCKAPPAD =      0 
   PCKAPPAD =      0 
   LCGBL =      0 
   NCGBL =      0 
   PCGBL =      0 
   LCKAPPAB =      0 
   NCKAPPAB =      0 
   PCKAPPAB =      0 
   LNTGEN =      0 
   NNTGEN =      0 
   PNTGEN =      0 
   LAIGEN =      0 
   NAIGEN =      0 
   PAIGEN =      0 
   LBIGEN =      0 
   NBIGEN =      0 
   PBIGEN =      0 
   LXRCRG1 =      0 
   NXRCRG1 =      0 
   PXRCRG1 =      0 
   LXRCRG2 =      0 
   NXRCRG2 =      0 
   PXRCRG2 =      0 
   LINTNOI =      0 
   NINTNOI =      0 
   PINTNOI =      0 
   LUTE =      0 
   NUTE =      0 
   PUTE =      0 
   LUTL =      0 
   NUTL =      0 
   PUTL =      0 
   LUA1 =      0 
   NUA1 =      0 
   PUA1 =      0 
   LUD1 =      0 
   NUD1 =      0 
   PUD1 =      0 
   LUCSTE =      0 
   NUCSTE =      0 
   PUCSTE =      0 
   LPTWGT =      0 
   NPTWGT =      0 
   PPTWGT =      0 
   LAT =      0 
   NAT =      0 
   PAT =      0 
   LSTTHETASAT =      0 
   NSTTHETASAT =      0 
   PSTTHETASAT =      0 
   LPRT =      0 
   NPRT =      0 
   PPRT =      0 
   LIIT =      0 
   NIIT =      0 
   PIIT =      0 
   LTII =      0 
   NTII =      0 
   PTII =      0 
   LTGIDL =      0 
   NTGIDL =      0 
   PTGIDL =      0 
   LIGT =      0 
   NIGT =      0 
   PIGT =      0 
   L = 2.4e-08 m
   D =  4e-08 m
   TFIN = 1.5e-08 m
   FPITCH =  6e-08 m
   NF = 1 
   NFIN = 1 
   NGCON = 1 
   ASEO =      0 m^2
   ADEO =      0 m^2
   PSEO =      0 m
   PDEO =      0 m
   ASEJ =      0 m^2
   ADEJ =      0 m^2
   PSEJ =      0 m
   PDEJ =      0 m
   CGSP =      0 F
   CGDP =      0 F
   CDSP =      0 F
   NRS =      0 
   NRD =      0 
   LRSD = 2.4e-08 m
   XL =      0 m
   DELVTRAND =      0 
   U0MULT =      1 
   IDS0MULT =      1 
   Lmin =  1e-08 m
   Lmax = 2.4e-08 m
   NFINmin = 0 
   NFINmax = 1 
   LVSAT1 =      0 
   NVSAT1 =      0 
   PVSAT1 =      0 
   LETAMOB =      0 
   NETAMOB =      0 
   PETAMOB =      0 
   LPCLMG =      0 
   NPCLMG =      0 
   PPCLMG =      0 
   LVASAT =      0 
   NVASAT =      0 
   PVASAT =      0 
   LAIGBACC =      0 
   NAIGBACC =      0 
   PAIGBACC =      0 
   LBIGBACC =      0 
   NBIGBACC =      0 
   PBIGBACC =      0 
   LCIGBACC =      0 
   NCIGBACC =      0 
   PCIGBACC =      0 
   LNIGBACC =      0 
   NNIGBACC =      0 
   PNIGBACC =      0 
  **info** (ptm20hp.sp:16) DC voltage reset to initial transient source value              in source        0:vin_0               new dc=  0.9000D+00
  
      
 **info** set option symb=1 internally to help for convergence.
 *****************************************************************
 ******  option summary
 ******
 runlvl  = 3         bypass  = 2         
  Opening plot unit= 15
 file=ptm20hp.pa0                                                              

1****** HSPICE -- F-2011.09-SP2 64-BIT (Feb 27 2012) linux ******               
 ******  
 $ netlist of inverter

  ******  operating point information tnom=  25.000 temp=  25.000 *****
 ***** operating point status is voltage   simulation time is   0.000e+00
      node    =voltage        node    =voltage        node    =voltage

 +  0:inb_0   = 9.000e-01   0:outb_00 = 3.098e-05   0:outb_000= 9.000e-01
 +  0:outb_000= 3.097e-05   0:outb_000= 3.097e-05   0:outb_000= 3.097e-05
 +  0:outb_000= 3.097e-05   0:outb_001= 9.000e-01   0:outb_001= 3.097e-05
 +  0:outb_001= 3.097e-05   0:outb_001= 3.097e-05   0:outb_001= 3.097e-05
 +  0:outb_002= 9.000e-01   0:outb_002= 3.097e-05   0:outb_002= 3.097e-05
 +  0:outb_002= 3.097e-05   0:outb_002= 3.097e-05   0:outb_003= 9.000e-01
 +  0:outb_003= 3.097e-05   0:outb_003= 3.097e-05   0:outb_003= 3.097e-05
 +  0:outb_003= 3.097e-05   0:outb_01 = 3.098e-05   0:outb_010= 9.000e-01
 +  0:outb_010= 3.097e-05   0:outb_010= 3.097e-05   0:outb_010= 3.097e-05
 +  0:outb_010= 3.097e-05   0:outb_011= 9.000e-01   0:outb_011= 3.097e-05
 +  0:outb_011= 3.097e-05   0:outb_011= 3.097e-05   0:outb_011= 3.097e-05
 +  0:outb_012= 9.000e-01   0:outb_012= 3.097e-05   0:outb_012= 3.097e-05
 +  0:outb_012= 3.097e-05   0:outb_012= 3.097e-05   0:outb_013= 9.000e-01
 +  0:outb_013= 3.097e-05   0:outb_013= 3.097e-05   0:outb_013= 3.097e-05
 +  0:outb_013= 3.097e-05   0:outb_02 = 3.098e-05   0:outb_020= 9.000e-01
 +  0:outb_020= 3.097e-05   0:outb_020= 3.097e-05   0:outb_020= 3.097e-05
 +  0:outb_020= 3.097e-05   0:outb_021= 9.000e-01   0:outb_021= 3.097e-05
 +  0:outb_021= 3.097e-05   0:outb_021= 3.097e-05   0:outb_021= 3.097e-05
 +  0:outb_022= 9.000e-01   0:outb_022= 3.097e-05   0:outb_022= 3.097e-05
 +  0:outb_022= 3.097e-05   0:outb_022= 3.097e-05   0:outb_023= 9.000e-01
 +  0:outb_023= 3.097e-05   0:outb_023= 3.097e-05   0:outb_023= 3.097e-05
 +  0:outb_023= 3.097e-05   0:outb_03 = 3.098e-05   0:outb_030= 9.000e-01
 +  0:outb_030= 3.097e-05   0:outb_030= 3.097e-05   0:outb_030= 3.097e-05
 +  0:outb_030= 3.097e-05   0:outb_031= 9.000e-01   0:outb_031= 3.097e-05
 +  0:outb_031= 3.097e-05   0:outb_031= 3.097e-05   0:outb_031= 3.097e-05
 +  0:outb_032= 9.000e-01   0:outb_032= 3.097e-05   0:outb_032= 3.097e-05
 +  0:outb_032= 3.097e-05   0:outb_032= 3.097e-05   0:outb_033= 9.000e-01
 +  0:outb_033= 3.097e-05   0:outb_033= 3.097e-05   0:outb_033= 3.097e-05
 +  0:outb_033= 3.097e-05   0:outin_00= 3.094e-05   0:outin_10= 9.000e-01
 +  0:vdd     = 9.000e-01

 ******  
 $ netlist of inverter

  ******  transient analysis tnom=  25.000 temp=  25.000 *****
 model_uut_peak_power00= 3.5644e-05    at= 2.3342e-11
             from= 0.0000e+00    to= 2.0000e-09
 model_uut_avg_power00= 5.0672e-07  from= 0.0000e+00     to= 2.0000e-09
 uut_peak_power= 5.5247e-05    at= 5.7817e-12
             from= 0.0000e+00    to= 2.0000e-09
 uut_avg_power= 4.4444e-07  from= 0.0000e+00     to= 2.0000e-09
 source_peak_power= 1.5692e-03    at= 1.0313e-09
             from= 0.0000e+00    to= 2.0000e-09
 source_avg_power= 2.0056e-05  from= 0.0000e+00     to= 2.0000e-09
 trf_delay= 9.4492e-12  targ= 2.8092e-11   trig= 1.8642e-11
 tfr_delay= 1.0659e-11  targ= 1.0305e-09   trig= 1.0198e-09
x

        time    voltage      voltage    
                 outin_00     outin_10  
  0.0000e+00    3.094e-05    9.000e-01  
  1.0000e-12   -4.935e-02    8.952e-01  
  2.0000e-12    2.692e-01    9.275e-01  
  3.0000e-12    5.110e-01    9.260e-01  
  4.0000e-12    6.744e-01    8.847e-01  
  5.0000e-12    7.734e-01    8.159e-01  
  6.0000e-12    8.245e-01    7.315e-01  
  7.0000e-12    8.455e-01    6.430e-01  
  8.0000e-12    8.572e-01    5.586e-01  
  9.0000e-12    8.633e-01    4.778e-01  
  1.0000e-11    8.658e-01    4.043e-01  
  1.1000e-11    8.679e-01    3.369e-01  
  1.2000e-11    8.689e-01    2.822e-01  
  1.3000e-11    8.700e-01    2.276e-01  
  1.4000e-11    8.733e-01    1.904e-01  
  1.5000e-11    8.782e-01    1.652e-01  
  1.6000e-11    8.831e-01    1.400e-01  
  1.7000e-11    8.871e-01    1.209e-01  
  1.8000e-11    8.897e-01    1.111e-01  
  1.9000e-11    8.923e-01    1.013e-01  
  2.0000e-11    8.948e-01    9.214e-02  
  2.1000e-11    8.958e-01    8.857e-02  
  2.2000e-11    8.968e-01    8.499e-02  
  2.3000e-11    8.978e-01    8.142e-02  
  2.4000e-11    8.978e-01    7.575e-02  
  2.5000e-11    8.972e-01    6.899e-02  
  2.6000e-11    8.967e-01    6.223e-02  
  2.7000e-11    8.962e-01    5.547e-02  
  2.8000e-11    8.962e-01    5.005e-02  
  2.9000e-11    8.967e-01    4.563e-02  
[...]
  1.5610e-09    2.999e-05    9.000e-01  
  1.5620e-09    2.994e-05    9.000e-01  
  1.5630e-09    2.989e-05    9.000e-01  
  1.5640e-09    2.983e-05    9.000e-01  
  1.5650e-09    2.978e-05    9.000e-01  
  1.5660e-09    2.973e-05    9.000e-01  
  1.5670e-09    2.968e-05    9.000e-01  
  1.5680e-09    2.963e-05    9.000e-01  
  1.5690e-09    2.958e-05    9.000e-01  
  1.5700e-09    2.953e-05    9.000e-01  
  1.5710e-09    2.948e-05    9.000e-01  
  1.5720e-09    2.942e-05    9.000e-01  
  1.5730e-09    2.937e-05    9.000e-01  
  1.5740e-09    2.932e-05    9.000e-01  
  1.5750e-09    2.927e-05    9.000e-01  
  1.5760e-09    2.922e-05    9.000e-01  
  1.5770e-09    2.917e-05    9.000e-01  
  1.5780e-09    2.912e-05    9.000e-01  
  1.5790e-09    2.907e-05    9.000e-01  
  1.5800e-09    2.902e-05    9.000e-01  
  1.5810e-09    2.896e-05    9.000e-01  
  1.5820e-09    2.891e-05    9.000e-01  
  1.5830e-09    2.886e-05    9.000e-01  
  1.5840e-09    2.881e-05    9.000e-01  
  1.5850e-09    2.876e-05    9.000e-01  
  1.5860e-09    2.871e-05    9.000e-01  
  1.5870e-09    2.866e-05    9.000e-01  
  1.5880e-09    2.861e-05    9.000e-01  
  1.5890e-09    2.855e-05    9.000e-01  
  1.5900e-09    2.850e-05    9.000e-01  
  1.5910e-09    2.845e-05    9.000e-01  
  1.5920e-09    2.840e-05    9.000e-01  
  1.5930e-09    2.844e-05    9.000e-01  
  1.5940e-09    2.849e-05    9.000e-01  
  1.5950e-09    2.854e-05    9.000e-01  
  1.5960e-09    2.859e-05    9.000e-01  
  1.5970e-09    2.864e-05    9.000e-01  
  1.5980e-09    2.869e-05    9.000e-01  
  1.5990e-09    2.874e-05    9.000e-01  
  1.6000e-09    2.879e-05    9.000e-01  
  1.6010e-09    2.884e-05    9.000e-01  
  1.6020e-09    2.889e-05    9.000e-01  
  1.6030e-09    2.894e-05    9.000e-01  
  1.6040e-09    2.899e-05    9.000e-01  
  1.6050e-09    2.904e-05    9.000e-01  
  1.6060e-09    2.909e-05    9.000e-01  
  1.6070e-09    2.914e-05    9.000e-01  
  1.6080e-09    2.920e-05    9.000e-01  
  1.6090e-09    2.925e-05    9.000e-01  
  1.6100e-09    2.930e-05    9.000e-01  
  1.6110e-09    2.935e-05    9.000e-01  
  1.6120e-09    2.940e-05    9.000e-01  
  1.6130e-09    2.945e-05    9.000e-01  
  1.6140e-09    2.950e-05    9.000e-01  
  1.6150e-09    2.955e-05    9.000e-01  
  1.6160e-09    2.960e-05    9.000e-01  
  1.6170e-09    2.965e-05    9.000e-01  
  1.6180e-09    2.970e-05    9.000e-01  
  1.6190e-09    2.975e-05    9.000e-01  
  1.6200e-09    2.980e-05    9.000e-01  
  1.6210e-09    2.985e-05    9.000e-01  
  1.6220e-09    2.990e-05    9.000e-01  
  1.6230e-09    2.995e-05    9.000e-01  
  1.6240e-09    3.000e-05    9.000e-01  
  1.6250e-09    3.005e-05    9.000e-01  
  1.6260e-09    3.010e-05    9.000e-01  
  1.6270e-09    3.016e-05    9.000e-01  
  1.6280e-09    3.021e-05    9.000e-01  
  1.6290e-09    3.026e-05    9.000e-01  
  1.6300e-09    3.031e-05    9.000e-01  
  1.6310e-09    3.036e-05    9.000e-01  
  1.6320e-09    3.041e-05    9.000e-01  
  1.6330e-09    3.046e-05    9.000e-01  
  1.6340e-09    3.051e-05    9.000e-01  
  1.6350e-09    3.056e-05    9.000e-01  
  1.6360e-09    3.061e-05    9.000e-01  
  1.6370e-09    3.066e-05    9.000e-01  
  1.6380e-09    3.071e-05    9.000e-01  
  1.6390e-09    3.076e-05    9.000e-01  
  1.6400e-09    3.081e-05    9.000e-01  
  1.6410e-09    3.086e-05    9.000e-01  
  1.6420e-09    3.091e-05    9.000e-01  
  1.6430e-09    3.096e-05    9.000e-01  
  1.6440e-09    3.101e-05    9.000e-01  
  1.6450e-09    3.106e-05    9.000e-01  
  1.6460e-09    3.112e-05    9.000e-01  
  1.6470e-09    3.117e-05    9.000e-01  
  1.6480e-09    3.122e-05    9.000e-01  
  1.6490e-09    3.127e-05    9.000e-01  
  1.6500e-09    3.132e-05    9.000e-01  
  1.6510e-09    3.137e-05    9.000e-01  
  1.6520e-09    3.142e-05    9.000e-01  
  1.6530e-09    3.147e-05    9.000e-01  
  1.6540e-09    3.152e-05    9.000e-01  
  1.6550e-09    3.157e-05    9.000e-01  
  1.6560e-09    3.162e-05    9.000e-01  
  1.6570e-09    3.167e-05    9.000e-01  
  1.6580e-09    3.172e-05    9.000e-01  
  1.6590e-09    3.177e-05    9.000e-01  
  1.6600e-09    3.182e-05    9.000e-01  
  1.6610e-09    3.187e-05    9.000e-01  
  1.6620e-09    3.192e-05    9.000e-01  
  1.6630e-09    3.197e-05    9.000e-01  
  1.6640e-09    3.203e-05    9.000e-01  
  1.6650e-09    3.208e-05    9.000e-01  
  1.6660e-09    3.213e-05    9.000e-01  
  1.6670e-09    3.218e-05    9.000e-01  
  1.6680e-09    3.223e-05    9.000e-01  
  1.6690e-09    3.228e-05    9.000e-01  
  1.6700e-09    3.233e-05    9.000e-01  
  1.6710e-09    3.238e-05    9.000e-01  
  1.6720e-09    3.243e-05    9.000e-01  
  1.6730e-09    3.248e-05    9.000e-01  
  1.6740e-09    3.253e-05    9.000e-01  
  1.6750e-09    3.258e-05    9.000e-01  
  1.6760e-09    3.263e-05    9.000e-01  
  1.6770e-09    3.268e-05    9.000e-01  
  1.6780e-09    3.273e-05    9.000e-01  
  1.6790e-09    3.278e-05    9.000e-01  
  1.6800e-09    3.283e-05    9.000e-01  
  1.6810e-09    3.288e-05    9.000e-01  
  1.6820e-09    3.293e-05    9.000e-01  
  1.6830e-09    3.299e-05    9.000e-01  
  1.6840e-09    3.304e-05    9.000e-01  
  1.6850e-09    3.309e-05    9.000e-01  
  1.6860e-09    3.314e-05    9.000e-01  
  1.6870e-09    3.319e-05    9.000e-01  
  1.6880e-09    3.324e-05    9.000e-01  
  1.6890e-09    3.329e-05    9.000e-01  
  1.6900e-09    3.334e-05    9.000e-01  
  1.6910e-09    3.339e-05    9.000e-01  
  1.6920e-09    3.344e-05    9.000e-01  
  1.6930e-09    3.340e-05    9.000e-01  
  1.6940e-09    3.335e-05    9.000e-01  
  1.6950e-09    3.330e-05    9.000e-01  
  1.6960e-09    3.325e-05    9.000e-01  
  1.6970e-09    3.320e-05    9.000e-01  
  1.6980e-09    3.315e-05    9.000e-01  
  1.6990e-09    3.310e-05    9.000e-01  
  1.7000e-09    3.305e-05    9.000e-01  
  1.7010e-09    3.300e-05    9.000e-01  
  1.7020e-09    3.295e-05    9.000e-01  
  1.7030e-09    3.291e-05    9.000e-01  
  1.7040e-09    3.286e-05    9.000e-01  
  1.7050e-09    3.281e-05    9.000e-01  
  1.7060e-09    3.276e-05    9.000e-01  
  1.7070e-09    3.271e-05    9.000e-01  
  1.7080e-09    3.266e-05    9.000e-01  
  1.7090e-09    3.261e-05    9.000e-01  
  1.7100e-09    3.256e-05    9.000e-01  
  1.7110e-09    3.251e-05    9.000e-01  
  1.7120e-09    3.246e-05    9.000e-01  
  1.7130e-09    3.241e-05    9.000e-01  
  1.7140e-09    3.236e-05    9.000e-01  
  1.7150e-09    3.231e-05    9.000e-01  
  1.7160e-09    3.226e-05    9.000e-01  
  1.7170e-09    3.221e-05    9.000e-01  
  1.7180e-09    3.216e-05    9.000e-01  
  1.7190e-09    3.211e-05    9.000e-01  
  1.7200e-09    3.206e-05    9.000e-01  
  1.7210e-09    3.201e-05    9.000e-01  
  1.7220e-09    3.196e-05    9.000e-01  
  1.7230e-09    3.191e-05    9.000e-01  
  1.7240e-09    3.186e-05    9.000e-01  
  1.7250e-09    3.181e-05    9.000e-01  
  1.7260e-09    3.176e-05    9.000e-01  
  1.7270e-09    3.171e-05    9.000e-01  
  1.7280e-09    3.166e-05    9.000e-01  
  1.7290e-09    3.161e-05    9.000e-01  
  1.7300e-09    3.156e-05    9.000e-01  
  1.7310e-09    3.151e-05    9.000e-01  
  1.7320e-09    3.146e-05    9.000e-01  
  1.7330e-09    3.141e-05    9.000e-01  
  1.7340e-09    3.136e-05    9.000e-01  
  1.7350e-09    3.131e-05    9.000e-01  
  1.7360e-09    3.126e-05    9.000e-01  
  1.7370e-09    3.121e-05    9.000e-01  
  1.7380e-09    3.116e-05    9.000e-01  
  1.7390e-09    3.111e-05    9.000e-01  
  1.7400e-09    3.106e-05    9.000e-01  
  1.7410e-09    3.101e-05    9.000e-01  
  1.7420e-09    3.096e-05    9.000e-01  
  1.7430e-09    3.091e-05    9.000e-01  
  1.7440e-09    3.086e-05    9.000e-01  
  1.7450e-09    3.081e-05    9.000e-01  
  1.7460e-09    3.076e-05    9.000e-01  
  1.7470e-09    3.071e-05    9.000e-01  
  1.7480e-09    3.066e-05    9.000e-01  
  1.7490e-09    3.061e-05    9.000e-01  
  1.7500e-09    3.056e-05    9.000e-01  
  1.7510e-09    3.051e-05    9.000e-01  
  1.7520e-09    3.046e-05    9.000e-01  
  1.7530e-09    3.041e-05    9.000e-01  
  1.7540e-09    3.036e-05    9.000e-01  
  1.7550e-09    3.031e-05    9.000e-01  
  1.7560e-09    3.026e-05    9.000e-01  
  1.7570e-09    3.021e-05    9.000e-01  
  1.7580e-09    3.016e-05    9.000e-01  
  1.7590e-09    3.011e-05    9.000e-01  
  1.7600e-09    3.006e-05    9.000e-01  
  1.7610e-09    3.001e-05    9.000e-01  
  1.7620e-09    2.996e-05    9.000e-01  
  1.7630e-09    2.991e-05    9.000e-01  
  1.7640e-09    2.986e-05    9.000e-01  
  1.7650e-09    2.981e-05    9.000e-01  
  1.7660e-09    2.976e-05    9.000e-01  
  1.7670e-09    2.971e-05    9.000e-01  
  1.7680e-09    2.966e-05    9.000e-01  
  1.7690e-09    2.961e-05    9.000e-01  
  1.7700e-09    2.956e-05    9.000e-01  
  1.7710e-09    2.951e-05    9.000e-01  
  1.7720e-09    2.946e-05    9.000e-01  
  1.7730e-09    2.941e-05    9.000e-01  
  1.7740e-09    2.936e-05    9.000e-01  
  1.7750e-09    2.931e-05    9.000e-01  
  1.7760e-09    2.926e-05    9.000e-01  
  1.7770e-09    2.921e-05    9.000e-01  
  1.7780e-09    2.916e-05    9.000e-01  
  1.7790e-09    2.911e-05    9.000e-01  
  1.7800e-09    2.906e-05    9.000e-01  
  1.7810e-09    2.901e-05    9.000e-01  
  1.7820e-09    2.896e-05    9.000e-01  
  1.7830e-09    2.891e-05    9.000e-01  
  1.7840e-09    2.886e-05    9.000e-01  
  1.7850e-09    2.881e-05    9.000e-01  
  1.7860e-09    2.876e-05    9.000e-01  
  1.7870e-09    2.871e-05    9.000e-01  
  1.7880e-09    2.866e-05    9.000e-01  
  1.7890e-09    2.861e-05    9.000e-01  
  1.7900e-09    2.856e-05    9.000e-01  
  1.7910e-09    2.851e-05    9.000e-01  
  1.7920e-09    2.846e-05    9.000e-01  
  1.7930e-09    2.849e-05    9.000e-01  
  1.7940e-09    2.854e-05    9.000e-01  
  1.7950e-09    2.859e-05    9.000e-01  
  1.7960e-09    2.864e-05    9.000e-01  
  1.7970e-09    2.869e-05    9.000e-01  
  1.7980e-09    2.874e-05    9.000e-01  
  1.7990e-09    2.879e-05    9.000e-01  
  1.8000e-09    2.884e-05    9.000e-01  
  1.8010e-09    2.889e-05    9.000e-01  
  1.8020e-09    2.894e-05    9.000e-01  
  1.8030e-09    2.899e-05    9.000e-01  
  1.8040e-09    2.904e-05    9.000e-01  
  1.8050e-09    2.909e-05    9.000e-01  
  1.8060e-09    2.914e-05    9.000e-01  
  1.8070e-09    2.919e-05    9.000e-01  
  1.8080e-09    2.924e-05    9.000e-01  
  1.8090e-09    2.929e-05    9.000e-01  
  1.8100e-09    2.933e-05    9.000e-01  
  1.8110e-09    2.938e-05    9.000e-01  
  1.8120e-09    2.943e-05    9.000e-01  
  1.8130e-09    2.948e-05    9.000e-01  
  1.8140e-09    2.953e-05    9.000e-01  
  1.8150e-09    2.958e-05    9.000e-01  
  1.8160e-09    2.963e-05    9.000e-01  
  1.8170e-09    2.968e-05    9.000e-01  
  1.8180e-09    2.973e-05    9.000e-01  
  1.8190e-09    2.978e-05    9.000e-01  
  1.8200e-09    2.983e-05    9.000e-01  
  1.8210e-09    2.988e-05    9.000e-01  
  1.8220e-09    2.993e-05    9.000e-01  
  1.8230e-09    2.998e-05    9.000e-01  
  1.8240e-09    3.003e-05    9.000e-01  
  1.8250e-09    3.008e-05    9.000e-01  
  1.8260e-09    3.013e-05    9.000e-01  
  1.8270e-09    3.017e-05    9.000e-01  
  1.8280e-09    3.022e-05    9.000e-01  
  1.8290e-09    3.027e-05    9.000e-01  
  1.8300e-09    3.032e-05    9.000e-01  
  1.8310e-09    3.037e-05    9.000e-01  
  1.8320e-09    3.042e-05    9.000e-01  
  1.8330e-09    3.047e-05    9.000e-01  
  1.8340e-09    3.052e-05    9.000e-01  
  1.8350e-09    3.057e-05    9.000e-01  
  1.8360e-09    3.062e-05    9.000e-01  
  1.8370e-09    3.067e-05    9.000e-01  
  1.8380e-09    3.072e-05    9.000e-01  
  1.8390e-09    3.077e-05    9.000e-01  
  1.8400e-09    3.082e-05    9.000e-01  
  1.8410e-09    3.087e-05    9.000e-01  
  1.8420e-09    3.092e-05    9.000e-01  
  1.8430e-09    3.097e-05    9.000e-01  
  1.8440e-09    3.101e-05    9.000e-01  
  1.8450e-09    3.106e-05    9.000e-01  
  1.8460e-09    3.111e-05    9.000e-01  
  1.8470e-09    3.116e-05    9.000e-01  
  1.8480e-09    3.121e-05    9.000e-01  
  1.8490e-09    3.126e-05    9.000e-01  
  1.8500e-09    3.131e-05    9.000e-01  
  1.8510e-09    3.136e-05    9.000e-01  
  1.8520e-09    3.141e-05    9.000e-01  
  1.8530e-09    3.146e-05    9.000e-01  
  1.8540e-09    3.151e-05    9.000e-01  
  1.8550e-09    3.156e-05    9.000e-01  
  1.8560e-09    3.161e-05    9.000e-01  
  1.8570e-09    3.166e-05    9.000e-01  
  1.8580e-09    3.171e-05    9.000e-01  
  1.8590e-09    3.176e-05    9.000e-01  
  1.8600e-09    3.181e-05    9.000e-01  
  1.8610e-09    3.185e-05    9.000e-01  
  1.8620e-09    3.190e-05    9.000e-01  
  1.8630e-09    3.195e-05    9.000e-01  
  1.8640e-09    3.200e-05    9.000e-01  
  1.8650e-09    3.205e-05    9.000e-01  
  1.8660e-09    3.210e-05    9.000e-01  
  1.8670e-09    3.215e-05    9.000e-01  
  1.8680e-09    3.220e-05    9.000e-01  
  1.8690e-09    3.225e-05    9.000e-01  
  1.8700e-09    3.230e-05    9.000e-01  
  1.8710e-09    3.235e-05    9.000e-01  
  1.8720e-09    3.240e-05    9.000e-01  
  1.8730e-09    3.245e-05    9.000e-01  
  1.8740e-09    3.250e-05    9.000e-01  
  1.8750e-09    3.255e-05    9.000e-01  
  1.8760e-09    3.260e-05    9.000e-01  
  1.8770e-09    3.265e-05    9.000e-01  
  1.8780e-09    3.269e-05    9.000e-01  
  1.8790e-09    3.274e-05    9.000e-01  
  1.8800e-09    3.279e-05    9.000e-01  
  1.8810e-09    3.284e-05    9.000e-01  
  1.8820e-09    3.289e-05    9.000e-01  
  1.8830e-09    3.294e-05    9.000e-01  
  1.8840e-09    3.299e-05    9.000e-01  
  1.8850e-09    3.304e-05    9.000e-01  
  1.8860e-09    3.309e-05    9.000e-01  
  1.8870e-09    3.314e-05    9.000e-01  
  1.8880e-09    3.319e-05    9.000e-01  
  1.8890e-09    3.324e-05    9.000e-01  
  1.8900e-09    3.329e-05    9.000e-01  
  1.8910e-09    3.334e-05    9.000e-01  
  1.8920e-09    3.339e-05    9.000e-01  
  1.8930e-09    3.335e-05    9.000e-01  
  1.8940e-09    3.331e-05    9.000e-01  
  1.8950e-09    3.326e-05    9.000e-01  
  1.8960e-09    3.322e-05    9.000e-01  
  1.8970e-09    3.317e-05    9.000e-01  
  1.8980e-09    3.313e-05    9.000e-01  
  1.8990e-09    3.308e-05    9.000e-01  
  1.9000e-09    3.304e-05    9.000e-01  
  1.9010e-09    3.299e-05    9.000e-01  
  1.9020e-09    3.295e-05    9.000e-01  
  1.9030e-09    3.290e-05    9.000e-01  
  1.9040e-09    3.286e-05    9.000e-01  
  1.9050e-09    3.281e-05    9.000e-01  
  1.9060e-09    3.277e-05    9.000e-01  
  1.9070e-09    3.272e-05    9.000e-01  
  1.9080e-09    3.267e-05    9.000e-01  
  1.9090e-09    3.263e-05    9.000e-01  
  1.9100e-09    3.258e-05    9.000e-01  
  1.9110e-09    3.254e-05    9.000e-01  
  1.9120e-09    3.249e-05    9.000e-01  
  1.9130e-09    3.245e-05    9.000e-01  
  1.9140e-09    3.240e-05    9.000e-01  
  1.9150e-09    3.236e-05    9.000e-01  
  1.9160e-09    3.231e-05    9.000e-01  
  1.9170e-09    3.227e-05    9.000e-01  
  1.9180e-09    3.222e-05    9.000e-01  
  1.9190e-09    3.218e-05    9.000e-01  
  1.9200e-09    3.213e-05    9.000e-01  
  1.9210e-09    3.208e-05    9.000e-01  
  1.9220e-09    3.204e-05    9.000e-01  
  1.9230e-09    3.199e-05    9.000e-01  
  1.9240e-09    3.195e-05    9.000e-01  
  1.9250e-09    3.190e-05    9.000e-01  
  1.9260e-09    3.186e-05    9.000e-01  
  1.9270e-09    3.181e-05    9.000e-01  
  1.9280e-09    3.177e-05    9.000e-01  
  1.9290e-09    3.172e-05    9.000e-01  
  1.9300e-09    3.168e-05    9.000e-01  
  1.9310e-09    3.163e-05    9.000e-01  
  1.9320e-09    3.159e-05    9.000e-01  
  1.9330e-09    3.154e-05    9.000e-01  
  1.9340e-09    3.149e-05    9.000e-01  
  1.9350e-09    3.145e-05    9.000e-01  
  1.9360e-09    3.140e-05    9.000e-01  
  1.9370e-09    3.136e-05    9.000e-01  
  1.9380e-09    3.131e-05    9.000e-01  
  1.9390e-09    3.127e-05    9.000e-01  
  1.9400e-09    3.122e-05    9.000e-01  
  1.9410e-09    3.118e-05    9.000e-01  
  1.9420e-09    3.113e-05    9.000e-01  
  1.9430e-09    3.109e-05    9.000e-01  
  1.9440e-09    3.104e-05    9.000e-01  
  1.9450e-09    3.100e-05    9.000e-01  
  1.9460e-09    3.095e-05    9.000e-01  
  1.9470e-09    3.090e-05    9.000e-01  
  1.9480e-09    3.086e-05    9.000e-01  
  1.9490e-09    3.081e-05    9.000e-01  
  1.9500e-09    3.077e-05    9.000e-01  
  1.9510e-09    3.072e-05    9.000e-01  
  1.9520e-09    3.068e-05    9.000e-01  
  1.9530e-09    3.063e-05    9.000e-01  
  1.9540e-09    3.059e-05    9.000e-01  
  1.9550e-09    3.054e-05    9.000e-01  
  1.9560e-09    3.050e-05    9.000e-01  
  1.9570e-09    3.045e-05    9.000e-01  
  1.9580e-09    3.041e-05    9.000e-01  
  1.9590e-09    3.036e-05    9.000e-01  
  1.9600e-09    3.031e-05    9.000e-01  
  1.9610e-09    3.027e-05    9.000e-01  
  1.9620e-09    3.022e-05    9.000e-01  
  1.9630e-09    3.018e-05    9.000e-01  
  1.9640e-09    3.013e-05    9.000e-01  
  1.9650e-09    3.009e-05    9.000e-01  
  1.9660e-09    3.004e-05    9.000e-01  
  1.9670e-09    3.000e-05    9.000e-01  
  1.9680e-09    2.995e-05    9.000e-01  
  1.9690e-09    2.991e-05    9.000e-01  
  1.9700e-09    2.986e-05    9.000e-01  
  1.9710e-09    2.982e-05    9.000e-01  
  1.9720e-09    2.977e-05    9.000e-01  
  1.9730e-09    2.973e-05    9.000e-01  
  1.9740e-09    2.968e-05    9.000e-01  
  1.9750e-09    2.963e-05    9.000e-01  
  1.9760e-09    2.959e-05    9.000e-01  
  1.9770e-09    2.954e-05    9.000e-01  
  1.9780e-09    2.950e-05    9.000e-01  
  1.9790e-09    2.945e-05    9.000e-01  
  1.9800e-09    2.941e-05    9.000e-01  
  1.9810e-09    2.936e-05    9.000e-01  
  1.9820e-09    2.932e-05    9.000e-01  
  1.9830e-09    2.927e-05    9.000e-01  
  1.9840e-09    2.923e-05    9.000e-01  
  1.9850e-09    2.918e-05    9.000e-01  
  1.9860e-09    2.914e-05    9.000e-01  
  1.9870e-09    2.909e-05    9.000e-01  
  1.9880e-09    2.904e-05    9.000e-01  
  1.9890e-09    2.900e-05    9.000e-01  
  1.9900e-09    2.895e-05    9.000e-01  
  1.9910e-09    2.891e-05    9.000e-01  
  1.9920e-09    2.886e-05    9.000e-01  
  1.9930e-09    2.882e-05    9.000e-01  
  1.9940e-09    2.877e-05    9.000e-01  
  1.9950e-09    2.873e-05    9.000e-01  
  1.9960e-09    2.868e-05    9.000e-01  
  1.9970e-09    2.864e-05    9.000e-01  
  1.9980e-09    2.859e-05    9.000e-01  
  1.9990e-09    2.855e-05    9.000e-01  
  2.0000e-09    2.850e-05    9.000e-01  
y

          ***** job concluded
1****** HSPICE -- F-2011.09-SP2 64-BIT (Feb 27 2012) linux ******               
 ******  
 $ netlist of inverter

  ******  job statistics summary tnom=  25.000 temp=  25.000 *****
  
  
 ******  Machine Information  ******
 CPU:
 model name	: Intel(R) Xeon(R) CPU E5-2650 v4 @ 2.20GHz
 cpu MHz	: 2039.554
  
 OS:
 Linux version 3.10.0-693.17.1.el7.x86_64 (mockbuild@x86-041.build.eng.bos.redha
 t.com) (gcc version 4.8.5 20150623 (Red Hat 4.8.5-16) (GCC) ) #1 SMP Sun Jan 14
  10:36:03 EST 2018


  ******  HSPICE Threads Information  ******

  Command Line Threads Count :     1
  Available CPU Count        :    24
  Actual Threads Count       :     1


  ******  Circuit Statistics  ******
  # nodes       =     433 # elements   =     174
  # resistors   =       0 # capacitors =       0 # inductors   =       0
  # mutual_inds =       0 # vccs       =       0 # vcvs        =       0
  # cccs        =       0 # ccvs       =       0 # volt_srcs   =       2
  # curr_srcs   =       0 # diodes     =       0 # bjts        =       0
  # jfets       =       0 # mosfets    =     172 # U elements  =       0
  # T elements  =       0 # W elements =       0 # B elements  =       0
  # S elements  =       0 # P elements =       0 # va device   =       0
  # vector_srcs =       0


  ******  Runtime Statistics (seconds)  ******

  analysis           time    # points   tot. iter  conv.iter
  op point           0.01           1           4
  transient          0.37        2001         328          95 rev=         2
  readin             0.00
  errchk             0.02
  setup              0.00
  output             0.00


           peak memory used        138.07 megabytes
           total cpu time            0.40 seconds
           total elapsed time        0.63 seconds
           job started at     16:44:11 09/25/2020
           job ended   at     16:44:12 09/25/2020


 lic: Release hspice token(s) 
