$DATA1 SOURCE='HSPICE' VERSION='F-2011.09-SP2 64-BIT'
.TITLE '$ netlist of inverter'
 model_uut_peak_power00 model_uut_avg_power012 uut_peak_power    
 uut_avg_power    source_peak_power source_avg_power trf_delay         
 tfr_delay        temper           alter#            
  2.402e-05        7.557e-07        3.840e-05        7.064e-07        
  5.435e-04        1.977e-05        1.421e-11        1.444e-11        
  2.500e+01       1                 
