$DATA1 SOURCE='HSPICE' VERSION='F-2011.09-SP2 64-BIT'
.TITLE '$ netlist of inverter'
 model_uut_peak_power00 model_uut_avg_power012 uut_peak_power    
 uut_avg_power    source_peak_power source_avg_power trf_delay         
 tfr_delay        temper           alter#            
  3.551e-05        1.010e-06        8.175e-05        8.662e-07        
  1.636e-03        3.943e-05        9.653e-12        1.024e-11        
  2.500e+01       1                 
