$DATA1 SOURCE='HSPICE' VERSION='F-2011.09-SP2 64-BIT'
.TITLE '$ netlist of inverter'
 model_uut_peak_power00 model_uut_avg_power00 uut_peak_power    
 uut_avg_power    source_peak_power source_avg_power trf_delay         
 tfr_delay        temper           alter#            
  2.182e-05        1.173e-07        3.478e-05        1.078e-07        
  6.228e-04        3.371e-06        4.920e-12        4.787e-12        
  2.500e+01       1                 
