 ****** HSPICE -- F-2011.09-SP2 64-BIT (Feb 27 2012) linux ******               
  Copyright (C) 2011 Synopsys, Inc. All Rights Reserved.                        
  Unpublished-rights reserved under US copyright laws.
  This program is protected by law and is subject to the
  terms and conditions of the license agreement from Synopsys.
  Use of this program is your acceptance to be bound by the
  license agreement. HSPICE is the trademark of Synopsys, Inc.
  Input File: ptm7hp.sp                                                         
  Command line options: ptm7hp.sp
 lic:  
 lic: FLEXlm: v10.8 
 lic: USER:   iliabautista         HOSTNAME: itn3.rc.usf.edu 
 lic: HOSTID:                      PID:      151221 
 lic: Using FLEXlm license file: 
 lic: 27000@license0.rc.usf.edu 
 lic: Checkout 1 hspice 
 lic: License/Maintenance for hspice will expire on 18-jul-2021/2019.06 
 lic: 1(in_use)/50(total) FLOATING license(s) on SERVER license0.rc.usf.edu 
 lic:   
  **warning** (../modelfiles/hp/7nfet.pm:4) Model nfet device geometries will not be checked against the limits set by lmin, lmax, nfinmin and nfinmax. To enable this check, add a period(.) to the model name(i.e. enable model selector).
1****** HSPICE -- F-2011.09-SP2 64-BIT (Feb 27 2012) linux ******               
 ******  
 $ netlist of inverter

  ******  circuit name directory
 circuit number to circuit name directory
   number circuitname                     definition         multiplier
        0 main circuit
        1 xmodel_uut_grid.                model_uut_grid     1.00 
        2 xoutput_00.                     inverter           1.00 
        3 xoutput_000.                    inverter           1.00 
        4 xoutput_0000.                   inverter           1.00 
        5 xoutput_0001.                   inverter           1.00 
        6 xoutput_0002.                   inverter           1.00 
        7 xoutput_0003.                   inverter           1.00 
        8 xoutput_001.                    inverter           1.00 
        9 xoutput_0010.                   inverter           1.00 
       10 xoutput_0011.                   inverter           1.00 
       11 xoutput_0012.                   inverter           1.00 
       12 xoutput_0013.                   inverter           1.00 
       13 xoutput_002.                    inverter           1.00 
       14 xoutput_0020.                   inverter           1.00 
       15 xoutput_0021.                   inverter           1.00 
       16 xoutput_0022.                   inverter           1.00 
       17 xoutput_0023.                   inverter           1.00 
       18 xoutput_003.                    inverter           1.00 
       19 xoutput_0030.                   inverter           1.00 
       20 xoutput_0031.                   inverter           1.00 
       21 xoutput_0032.                   inverter           1.00 
       22 xoutput_0033.                   inverter           1.00 
       23 xoutput_01.                     inverter           1.00 
       24 xoutput_010.                    inverter           1.00 
       25 xoutput_0100.                   inverter           1.00 
       26 xoutput_0101.                   inverter           1.00 
       27 xoutput_0102.                   inverter           1.00 
       28 xoutput_0103.                   inverter           1.00 
       29 xoutput_011.                    inverter           1.00 
       30 xoutput_0110.                   inverter           1.00 
       31 xoutput_0111.                   inverter           1.00 
       32 xoutput_0112.                   inverter           1.00 
       33 xoutput_0113.                   inverter           1.00 
       34 xoutput_012.                    inverter           1.00 
       35 xoutput_0120.                   inverter           1.00 
       36 xoutput_0121.                   inverter           1.00 
       37 xoutput_0122.                   inverter           1.00 
       38 xoutput_0123.                   inverter           1.00 
       39 xoutput_013.                    inverter           1.00 
       40 xoutput_0130.                   inverter           1.00 
       41 xoutput_0131.                   inverter           1.00 
       42 xoutput_0132.                   inverter           1.00 
       43 xoutput_0133.                   inverter           1.00 
       44 xoutput_02.                     inverter           1.00 
       45 xoutput_020.                    inverter           1.00 
       46 xoutput_0200.                   inverter           1.00 
       47 xoutput_0201.                   inverter           1.00 
       48 xoutput_0202.                   inverter           1.00 
       49 xoutput_0203.                   inverter           1.00 
       50 xoutput_021.                    inverter           1.00 
       51 xoutput_0210.                   inverter           1.00 
       52 xoutput_0211.                   inverter           1.00 
       53 xoutput_0212.                   inverter           1.00 
       54 xoutput_0213.                   inverter           1.00 
       55 xoutput_022.                    inverter           1.00 
       56 xoutput_0220.                   inverter           1.00 
       57 xoutput_0221.                   inverter           1.00 
       58 xoutput_0222.                   inverter           1.00 
       59 xoutput_0223.                   inverter           1.00 
       60 xoutput_023.                    inverter           1.00 
       61 xoutput_0230.                   inverter           1.00 
       62 xoutput_0231.                   inverter           1.00 
       63 xoutput_0232.                   inverter           1.00 
       64 xoutput_0233.                   inverter           1.00 
       65 xoutput_03.                     inverter           1.00 
       66 xoutput_030.                    inverter           1.00 
       67 xoutput_0300.                   inverter           1.00 
       68 xoutput_0301.                   inverter           1.00 
       69 xoutput_0302.                   inverter           1.00 
       70 xoutput_0303.                   inverter           1.00 
       71 xoutput_031.                    inverter           1.00 
       72 xoutput_0310.                   inverter           1.00 
       73 xoutput_0311.                   inverter           1.00 
       74 xoutput_0312.                   inverter           1.00 
       75 xoutput_0313.                   inverter           1.00 
       76 xoutput_032.                    inverter           1.00 
       77 xoutput_0320.                   inverter           1.00 
       78 xoutput_0321.                   inverter           1.00 
       79 xoutput_0322.                   inverter           1.00 
       80 xoutput_0323.                   inverter           1.00 
       81 xoutput_033.                    inverter           1.00 
       82 xoutput_0330.                   inverter           1.00 
       83 xoutput_0331.                   inverter           1.00 
       84 xoutput_0332.                   inverter           1.00 
       85 xoutput_0333.                   inverter           1.00 
       86 xmodel_uut_grid.xinverter00.    inverter           1.00 
       87 xoutput_00.xpfet.               pfet               1.00 
       88 xoutput_00.xnfet.               nfet               1.00 
       89 xoutput_000.xpfet.              pfet               1.00 
       90 xoutput_000.xnfet.              nfet               1.00 
       91 xoutput_0000.xpfet.             pfet               1.00 
       92 xoutput_0000.xnfet.             nfet               1.00 
       93 xoutput_0001.xpfet.             pfet               1.00 
       94 xoutput_0001.xnfet.             nfet               1.00 
       95 xoutput_0002.xpfet.             pfet               1.00 
       96 xoutput_0002.xnfet.             nfet               1.00 
       97 xoutput_0003.xpfet.             pfet               1.00 
       98 xoutput_0003.xnfet.             nfet               1.00 
       99 xoutput_001.xpfet.              pfet               1.00 
      100 xoutput_001.xnfet.              nfet               1.00 
      101 xoutput_0010.xpfet.             pfet               1.00 
      102 xoutput_0010.xnfet.             nfet               1.00 
      103 xoutput_0011.xpfet.             pfet               1.00 
      104 xoutput_0011.xnfet.             nfet               1.00 
      105 xoutput_0012.xpfet.             pfet               1.00 
      106 xoutput_0012.xnfet.             nfet               1.00 
      107 xoutput_0013.xpfet.             pfet               1.00 
      108 xoutput_0013.xnfet.             nfet               1.00 
      109 xoutput_002.xpfet.              pfet               1.00 
      110 xoutput_002.xnfet.              nfet               1.00 
      111 xoutput_0020.xpfet.             pfet               1.00 
      112 xoutput_0020.xnfet.             nfet               1.00 
      113 xoutput_0021.xpfet.             pfet               1.00 
      114 xoutput_0021.xnfet.             nfet               1.00 
      115 xoutput_0022.xpfet.             pfet               1.00 
      116 xoutput_0022.xnfet.             nfet               1.00 
      117 xoutput_0023.xpfet.             pfet               1.00 
      118 xoutput_0023.xnfet.             nfet               1.00 
      119 xoutput_003.xpfet.              pfet               1.00 
      120 xoutput_003.xnfet.              nfet               1.00 
      121 xoutput_0030.xpfet.             pfet               1.00 
      122 xoutput_0030.xnfet.             nfet               1.00 
      123 xoutput_0031.xpfet.             pfet               1.00 
      124 xoutput_0031.xnfet.             nfet               1.00 
      125 xoutput_0032.xpfet.             pfet               1.00 
      126 xoutput_0032.xnfet.             nfet               1.00 
      127 xoutput_0033.xpfet.             pfet               1.00 
      128 xoutput_0033.xnfet.             nfet               1.00 
      129 xoutput_01.xpfet.               pfet               1.00 
      130 xoutput_01.xnfet.               nfet               1.00 
      131 xoutput_010.xpfet.              pfet               1.00 
      132 xoutput_010.xnfet.              nfet               1.00 
      133 xoutput_0100.xpfet.             pfet               1.00 
      134 xoutput_0100.xnfet.             nfet               1.00 
      135 xoutput_0101.xpfet.             pfet               1.00 
      136 xoutput_0101.xnfet.             nfet               1.00 
      137 xoutput_0102.xpfet.             pfet               1.00 
      138 xoutput_0102.xnfet.             nfet               1.00 
      139 xoutput_0103.xpfet.             pfet               1.00 
      140 xoutput_0103.xnfet.             nfet               1.00 
      141 xoutput_011.xpfet.              pfet               1.00 
      142 xoutput_011.xnfet.              nfet               1.00 
      143 xoutput_0110.xpfet.             pfet               1.00 
      144 xoutput_0110.xnfet.             nfet               1.00 
      145 xoutput_0111.xpfet.             pfet               1.00 
      146 xoutput_0111.xnfet.             nfet               1.00 
      147 xoutput_0112.xpfet.             pfet               1.00 
      148 xoutput_0112.xnfet.             nfet               1.00 
      149 xoutput_0113.xpfet.             pfet               1.00 
      150 xoutput_0113.xnfet.             nfet               1.00 
      151 xoutput_012.xpfet.              pfet               1.00 
      152 xoutput_012.xnfet.              nfet               1.00 
      153 xoutput_0120.xpfet.             pfet               1.00 
      154 xoutput_0120.xnfet.             nfet               1.00 
      155 xoutput_0121.xpfet.             pfet               1.00 
      156 xoutput_0121.xnfet.             nfet               1.00 
      157 xoutput_0122.xpfet.             pfet               1.00 
      158 xoutput_0122.xnfet.             nfet               1.00 
      159 xoutput_0123.xpfet.             pfet               1.00 
      160 xoutput_0123.xnfet.             nfet               1.00 
      161 xoutput_013.xpfet.              pfet               1.00 
      162 xoutput_013.xnfet.              nfet               1.00 
      163 xoutput_0130.xpfet.             pfet               1.00 
      164 xoutput_0130.xnfet.             nfet               1.00 
      165 xoutput_0131.xpfet.             pfet               1.00 
      166 xoutput_0131.xnfet.             nfet               1.00 
      167 xoutput_0132.xpfet.             pfet               1.00 
      168 xoutput_0132.xnfet.             nfet               1.00 
      169 xoutput_0133.xpfet.             pfet               1.00 
      170 xoutput_0133.xnfet.             nfet               1.00 
      171 xoutput_02.xpfet.               pfet               1.00 
      172 xoutput_02.xnfet.               nfet               1.00 
      173 xoutput_020.xpfet.              pfet               1.00 
      174 xoutput_020.xnfet.              nfet               1.00 
      175 xoutput_0200.xpfet.             pfet               1.00 
      176 xoutput_0200.xnfet.             nfet               1.00 
      177 xoutput_0201.xpfet.             pfet               1.00 
      178 xoutput_0201.xnfet.             nfet               1.00 
      179 xoutput_0202.xpfet.             pfet               1.00 
      180 xoutput_0202.xnfet.             nfet               1.00 
      181 xoutput_0203.xpfet.             pfet               1.00 
      182 xoutput_0203.xnfet.             nfet               1.00 
      183 xoutput_021.xpfet.              pfet               1.00 
      184 xoutput_021.xnfet.              nfet               1.00 
      185 xoutput_0210.xpfet.             pfet               1.00 
      186 xoutput_0210.xnfet.             nfet               1.00 
      187 xoutput_0211.xpfet.             pfet               1.00 
      188 xoutput_0211.xnfet.             nfet               1.00 
      189 xoutput_0212.xpfet.             pfet               1.00 
      190 xoutput_0212.xnfet.             nfet               1.00 
      191 xoutput_0213.xpfet.             pfet               1.00 
      192 xoutput_0213.xnfet.             nfet               1.00 
      193 xoutput_022.xpfet.              pfet               1.00 
      194 xoutput_022.xnfet.              nfet               1.00 
      195 xoutput_0220.xpfet.             pfet               1.00 
      196 xoutput_0220.xnfet.             nfet               1.00 
      197 xoutput_0221.xpfet.             pfet               1.00 
      198 xoutput_0221.xnfet.             nfet               1.00 
      199 xoutput_0222.xpfet.             pfet               1.00 
      200 xoutput_0222.xnfet.             nfet               1.00 
      201 xoutput_0223.xpfet.             pfet               1.00 
      202 xoutput_0223.xnfet.             nfet               1.00 
      203 xoutput_023.xpfet.              pfet               1.00 
      204 xoutput_023.xnfet.              nfet               1.00 
      205 xoutput_0230.xpfet.             pfet               1.00 
      206 xoutput_0230.xnfet.             nfet               1.00 
      207 xoutput_0231.xpfet.             pfet               1.00 
      208 xoutput_0231.xnfet.             nfet               1.00 
      209 xoutput_0232.xpfet.             pfet               1.00 
      210 xoutput_0232.xnfet.             nfet               1.00 
      211 xoutput_0233.xpfet.             pfet               1.00 
      212 xoutput_0233.xnfet.             nfet               1.00 
      213 xoutput_03.xpfet.               pfet               1.00 
      214 xoutput_03.xnfet.               nfet               1.00 
      215 xoutput_030.xpfet.              pfet               1.00 
      216 xoutput_030.xnfet.              nfet               1.00 
      217 xoutput_0300.xpfet.             pfet               1.00 
      218 xoutput_0300.xnfet.             nfet               1.00 
      219 xoutput_0301.xpfet.             pfet               1.00 
      220 xoutput_0301.xnfet.             nfet               1.00 
      221 xoutput_0302.xpfet.             pfet               1.00 
      222 xoutput_0302.xnfet.             nfet               1.00 
      223 xoutput_0303.xpfet.             pfet               1.00 
      224 xoutput_0303.xnfet.             nfet               1.00 
      225 xoutput_031.xpfet.              pfet               1.00 
      226 xoutput_031.xnfet.              nfet               1.00 
      227 xoutput_0310.xpfet.             pfet               1.00 
      228 xoutput_0310.xnfet.             nfet               1.00 
      229 xoutput_0311.xpfet.             pfet               1.00 
      230 xoutput_0311.xnfet.             nfet               1.00 
      231 xoutput_0312.xpfet.             pfet               1.00 
      232 xoutput_0312.xnfet.             nfet               1.00 
      233 xoutput_0313.xpfet.             pfet               1.00 
      234 xoutput_0313.xnfet.             nfet               1.00 
      235 xoutput_032.xpfet.              pfet               1.00 
      236 xoutput_032.xnfet.              nfet               1.00 
      237 xoutput_0320.xpfet.             pfet               1.00 
      238 xoutput_0320.xnfet.             nfet               1.00 
      239 xoutput_0321.xpfet.             pfet               1.00 
      240 xoutput_0321.xnfet.             nfet               1.00 
      241 xoutput_0322.xpfet.             pfet               1.00 
      242 xoutput_0322.xnfet.             nfet               1.00 
      243 xoutput_0323.xpfet.             pfet               1.00 
      244 xoutput_0323.xnfet.             nfet               1.00 
      245 xoutput_033.xpfet.              pfet               1.00 
      246 xoutput_033.xnfet.              nfet               1.00 
      247 xoutput_0330.xpfet.             pfet               1.00 
      248 xoutput_0330.xnfet.             nfet               1.00 
      249 xoutput_0331.xpfet.             pfet               1.00 
      250 xoutput_0331.xnfet.             nfet               1.00 
      251 xoutput_0332.xpfet.             pfet               1.00 
      252 xoutput_0332.xnfet.             nfet               1.00 
      253 xoutput_0333.xpfet.             pfet               1.00 
      254 xoutput_0333.xnfet.             nfet               1.00 
      255 xmodel_uut_grid.xinverter00.xpfet.
                                            pfet               1.00 
      256 xmodel_uut_grid.xinverter00.xnfet.
                                            nfet               1.00 
1****** HSPICE -- F-2011.09-SP2 64-BIT (Feb 27 2012) linux ******               
 ******  
 $ netlist of inverter

  ******  mos   model parameters tnom=  25.000 temp=  25.000 *****
 Model Name: pfet 
 BSIM-MG BULK Model(Level72)
   VERSION = 105.03  
   DEVTYPE = -1 
   BULKMOD = 1  
   COREMOD = 0 
   GEOMOD = 1 
   RDSMOD = 1 
   IGCMOD = 1 
   IGBMOD = 1 
   GIDLMOD = 0 
   IIMOD = 0 
   NQSMOD = 0 
   SHMOD = 0 
   RGATEMOD = 0 
   RGEOMOD = 1 
   CGEOMOD = 2 
   CAPMOD = 0 
   LINT =  2e-10 m
   LL =      0 m^(LLN+1)
   LLN =      1 
   DLC =      0 m
   DLBIN =      0 
   LLC =      0 m^(LLN+1)
   EOT = 6.2e-10 m
   TOXP = 1.15e-09 m
   EOTBOX = 1.4e-07 m
   HFIN = 1.8e-08 m
   FECH =      1 
   DELTAW =      0 m
   FECHCV =      1 
   DELTAWCV =      0 m
   NBODY =  1e+22 m^-3
   NSD =  3e+26 m^-3
   PHIG =  4.747 eV
   EPSROX =    3.9 
   EPSRSUB =   11.9 
   EASUB =   4.05 eV
   NI0SUB = 1.1e+16 m^-3
   BG0SUB =   1.12 eV
   NC0SUB = 2.86e+25 m^-3
   NGATE =      0 m^-3
   CIT = 1.3e-05 F/m^2
   CDSC =  0.039 F/m^2
   CDSCD =  0.007 F/m^2
   CDSCDR =  0.007 
   DVT0 =   0.01 
   DVT1 =   0.69 
   PHIN =   0.05 V
   ETA0 =   0.97 
   ETA0R =   0.97 
   DSUB =    0.9 
   K1RSCE =      0 V^1/2
   LPE0 =  5e-09 m
   DVTSHIFT =      0 
   QMFACTOR =      0 
   QMTCENIV =      0 
   QMTCENCV =      0 
   AQMTCEN =      0 
   BQMTCEN = 1.2e-08 
   ETAQM =   0.54 
   QM0 = 0.001143 
   PQM =   0.66 
   QM0ACC =  0.001 
   PQMACC =   0.66 
   VSAT = 1.53e+05 
   AVSAT =      0 
   BVSAT =  1e-07 
   VSAT1 = 1.53e+05 
   AVSAT1 =      0 
   BVSAT1 =  1e-07 
   DELTAVSAT =      1 
   KSATIV =    0.8 
   MEXP =      3 
   AMEXP =      0 
   BMEXP =      1 
   PTWG =      0 
   APTWG =      0 
   BPTWG =  1e-07 
   AT = -0.00156 
   TMEXP =      0 
   PTWGT =  0.004 
   U0 =  0.042 
   ETAMOB =      2 
   UP =      0 
   LPA =      1 
   UA =    0.3 
   AUA =      0 
   BUA =  1e-07 
   EU =    1.8 
   AEU =      0 
   BEU =  1e-07 
   UD =      0 
   AUD =      0 
   BUD =  5e-08 
   UCS =      0 
   UTE =      0 
   UTL = -0.0015 
   UA1 = 0.001032 
   UD1 =      0 
   UCSTE = -0.00478 
   RDSWMIN =      0 
   RDSW =    100 
   ARDSW =      0 
   BRDSW =  1e-07 
   RSWMIN =      0 
   RSW =      0 
   ARSW =      0 
   BRSW =  1e-07 
   RDWMIN =      0 
   RDW =      0 
   ARDW =      0 
   BRDW =  1e-07 
   PRWG =      0 
   WR =      1 
   PRT =  0.001 
   PDIBL1 =    1.3 
   PDIBL2 = 0.0002 
   DROUT =   1.06 
   PVAG =      1 
   PCLM =    0.2 
   APCLM =      0 
   BPCLM =  1e-07 
   PCLMG =      0 
   VASAT =    0.6 
   PCLMCV =  0.013 
   PCLMGCV =      0 
   VASATCV =    0.2 
   RGEXT =      0 ohm
   RGFIN =  0.001 ohm
   RSHS =      0 ohm
   RSHD =      0 ohm
   HEPI =  8e-09 m
   TSILI =  7e-09 m
   RHOC =  5e-13 ohm/m^2
   RHORSD =      1 ohm/m
   RHOEXT =      1 ohm/m
   CRATIO =    0.5 
   DELTAPRSD =      0 m
   SDTERM = 0 
   LSP = 2.2e-09 m
   LDG =  2e-09 m
   EPSRSP =    3.9 
   TGATE = 7.5e-09 m
   TMASK =      0 m
   ASILIEND =      0 m^2
   ARSDEND =      0 m^2
   PRSDEND =      0 m
   NSDE =  9e+25 m^-3
   RGEOA =      1 
   RGEOB =      0 m^-1
   RGEOC =      0 m^-1
   RGEOD =      0 m^-1
   RGEOE =      0 m^-1
   CGEOA =      1 
   CGEOB =      0 m^-1
   CGEOC =      0 m^-1
   CGEOD =      0 m^-1
   CGEOE =      1 
   AIGBINV = 0.0111 (Fs^2/g)^0.5m^-1
   BIGBINV =   0.03 (Fs^2/g)^0.5m^-1
   CIGBINV =  0.006 V^-1
   EIGBINV =    1.1 V
   NIGBINV =    1.2 
   AIGBACC = 0.0149 
   BIGBACC = 0.000949 
   CIGBACC =  0.075 
   NIGBACC =      3 
   AIGC = 0.0136 (Fs^2/g)^0.5m^-1
   BIGC = 0.00171 (Fs^2/g)^0.5m^-1V^-1
   CIGC =  0.075 V^-1
   NIGC =      1 
   DLCIGS =      0 m
   AIGS = 0.0136 (Fs^2/g)^0.5m^-1
   BIGS = 0.00171 (Fs^2/g)^0.5m^-1V^-1
   CIGS =  0.075 V^-1
   DLCIGD =      0 m
   AIGD = 0.0136 (Fs^2/g)^0.5m^-1
   BIGD = 0.00171 (Fs^2/g)^0.5m^-1V^-1
   CIGD =  0.075 V^-1
   POXEDGE =      1 
   AGIDL = 5.729e-12 ohm^-1
   BGIDL =  3e+08 V/m
   EGIDL =    0.1 V
   AGISL = 5.729e-12 ohm^-1
   BGISL =  3e+08 V/m
   EGISL =    0.1 V
   ALPHA0 =      0 mV^-1
   ALPHA1 =      0 V^-1
   BETA0 =     30 V^-1
   ALPHAII =      0 
   BETAII0 =      0 V^-1
   BETAII1 =      0 
   BETAII2 =    0.1 V
   ESATII =  1e+07 V/m
   LII =  5e-10 V/m
   SII0 =    0.5 V^-1
   SII1 =    0.1 
   SII2 =      0 V
   SIID =      0 V
   EOTACC = 6.2e-10 m
   DELVFBACC =      0 V
   CFS = 2.56e-11 F/m
   CFD = 2.65e-11 F/m
   COVS = 2.5e-11 F/m
   COVD = 2.5e-11 F/m
   CGSO =      0 F/m
   CGDO =      0 F/m
   CGSL =      0 F/m
   CGDL =      0 F/m
   CKAPPAS =    0.6 V
   CKAPPAD =    0.6 V
   CGBO =      0 F/m
   CGBL =      0 F/m
   CKAPPAB =    0.6 V
   CSDESW =      0 F/m
   CJS = 0.0005 F/m^2
   CJD = 0.0005 F/m^2
   CJSWS =  5e-10 F/m
   CJSWD =  5e-10 F/m
   CJSWGS =      0 F/m
   CJSWGD =      0 F/m
   PBS =      1 V
   PBD =      1 V
   PBSWS =      1 V
   PBSWD =      1 V
   PBSWGS =      1 V
   PBSWGD =      1 V
   MJS, =    0.5 
   MJD =    0.5 
   MJSWS =   0.33 
   MJSWD =   0.33 
   MJSWGS =   0.33 
   MJSWGD =   0.33 
   SJS =      0 
   SJD =      0 
   SJSWS =      0 
   SJSWD =      0 
   SJSWGS =      0 
   SJSWGD =      0 
   MJS2 =  0.125 
   MJD2 =  0.125 
   MJSWS2 =   0.33 
   MJSWD2 =   0.33 
   MJSWGS2 =   0.33 
   MJSWGD2 =   0.33 
   JSS = 0.0001 A/m^2
   JSD = 0.0001 A/m^2
   JSWS =      0 A/m
   JSWD =      0 A/m
   JSWGS =      0 A/m
   JSWGD =      0 A/m
   NJS =      1 
   NJD =      1 
   IJTHSFWD =    0.1 A
   IJTHDFWD =    0.1 A
   IJTHSREV =    0.1 A
   IJTHDREV =    0.1 A
   BVS =     10 V
   BVD =     10 V
   XJBVS =      1 
   XJBVD =      1 
   JTSS =      0 A/m^2
   JTSD =      0 A/m^2
   JTSSWS =      0 A/m
   JTSSWD =      0 A/m
   JTSSWGS =      0 A/m
   JTSSWGD =      0 A/m
   JTWEFF =      0 m
   NJTS =     20 
   NJTSD =     20 
   NJTSSW =     20 
   NJTSSWD =     20 
   NJTSSWG =     20 
   NJTSSWGD =     20 
   VTSS =     10 V
   VTSD =     10 V
   VTSSWS =     10 V
   VTSSWD =     10 V
   VTSSWGS =     10 V
   VTSSWGD =     10 V
   LINTIGEN =      0 m
   NTGEN =      1 
   AIGEN =      0 m^-3V^-1
   BIGEN =      0 m^-3V^-3
   XRCRG1 =     12 
   XRCRG2 =      1 
   NSEG = 5 
   EF =      1 
   EM = 4.1e+07 V/m
   NOIA = 6.25e+39 eV^-1s^1-EFm^-3
   NOIB = 3.125e+24 eV^-1s^1-EFm^-1
   NOIC = 8.75e+07 eV^-1s^1-EFm
   NTNOI =      1 
   TNOM =  300.1 K
   TBGASUB = 0.000702 eV/K
   TBGBSUB =   1108 K
   KT1 =      0 V
   KT1L =      0 Vm
   IIT =   -0.5 
   TII =      0 
   TGIDL = -0.0003 K^-1
   IGT =    2.5 
   TCJ =      0 K^-1
   TCJSW =      0 K^-1
   TCJSWG =      0 K^-1
   TPB =      0 K^-1
   TPBSW =      0 K^-1
   TPBSWG =      0 K^-1
   XTIS =      3 
   XTID =      3 
   XTSS =   0.02 
   XTSD =   0.02 
   XTSSWS =   0.02 
   XTSSWD =   0.02 
   XTSSWGS =   0.02 
   XTSSWGD =   0.02 
   TNJTS =      0 
   TNJTSD =      0 
   TNJTSSW =      0 
   TNJTSSWD =      0 
   TNJTSSWG =      0 
   TNJTSSWGD =      0 
   RTH0 =   0.01 ohm
   CTH0 =  1e-05 F
   WTH0 =      0 m
   LNBODY =      0 
   NNBODY =      0 
   PNBODY =      0 
   LPHIG =      0 
   NPHIG =      0 
   PPHIG =      0 
   LNGATE =      0 
   NNGATE =      0 
   PNGATE =      0 
   LCIT =      0 
   NCIT =      0 
   PCIT =      0 
   LCDSC =      0 
   NCDSC =      0 
   PCDSC =      0 
   LCDSCD =      0 
   NCDSCD =      0 
   PCDSCD =      0 
   LCDSCDR =      0 
   NCDSCDR =      0 
   PCDSCDR =      0 
   LDVT0 =      0 
   NDVT0 =      0 
   PDVT0 =      0 
   LDVT1 =      0 
   NDVT1 =      0 
   PDVT1 =      0 
   LPHIN =      0 
   NPHIN =      0 
   PPHIN =      0 
   LETA0 =      0 
   NETA0 =      0 
   PETA0 =      0 
   LETA0R =      0 
   NETA0R =      0 
   PETA0R =      0 
   LDSUB =      0 
   NDSUB =      0 
   PDSUB =      0 
   LK1RSCE =      0 
   NK1RSCE =      0 
   PK1RSCE =      0 
   LLPE0 =      0 
   NLPE0 =      0 
   PLPE0 =      0 
   LQMFACTOR =      0 
   NQMFACTOR =      0 
   PQMFACTOR =      0 
   LQMTCENIV =      0 
   NQMTCENIV =      0 
   PQMTCENIV =      0 
   LQMTCENCV =      0 
   NQMTCENCV =      0 
   PQMTCENCV =      0 
   LVSAT =      0 
   NVSAT =      0 
   PVSAT =      0 
   LKSATIV =      0 
   NKSATIV =      0 
   PKSATIV =      0 
   LMEXP =      0 
   NMEXP =      0 
   PMEXP =      0 
   LPTWG =      0 
   NPTWG =      0 
   PPTWG =      0 
   LTHETASAT =      0 
   NTHETASAT =      0 
   PTHETASAT =      0 
   LU0 =      0 
   NU0 =      0 
   PU0 =      0 
   LUP =      0 
   NUP =      0 
   PUP =      0 
   LUA =      0 
   NUA =      0 
   PUA =      0 
   LEU =      0 
   NEU =      0 
   PEU =      0 
   LUD =      0 
   NUD =      0 
   PUD =      0 
   LUCS =      0 
   NUCS =      0 
   PUCS =      0 
   LPCLM =      0 
   NPCLM =      0 
   PPCLM =      0 
   LPCLMCV =      0 
   NPCLMCV =      0 
   PPCLMCV =      0 
   LRDSW =      0 
   NRDSW =      0 
   PRDSW =      0 
   LRSW =      0 
   NRSW =      0 
   PRSW =      0 
   LRDW =      0 
   NRDW =      0 
   PRDW =      0 
   LPRWG =      0 
   NPRWG =      0 
   PPRWG =      0 
   LWR =      0 
   NWR =      0 
   PWR =      0 
   LPDIBL1 =      0 
   NPDIBL1 =      0 
   PPDIBL1 =      0 
   LPDIBL2 =      0 
   NPDIBL2 =      0 
   PPDIBL2 =      0 
   LDROUT =      0 
   NDROUT =      0 
   PDROUT =      0 
   LPVAG =      0 
   NPVAG =      0 
   PPVAG =      0 
   LAIGBINV =      0 
   NAIGBINV =      0 
   PAIGBINV =      0 
   LBIGBINV =      0 
   NBIGBINV =      0 
   PBIGBINV =      0 
   LCIGBINV =      0 
   NCIGBINV =      0 
   PCIGBINV =      0 
   LEIGBINV =      0 
   NEIGBINV =      0 
   PEIGBINV =      0 
   LNIGBINV =      0 
   NNIGBINV =      0 
   PNIGBINV =      0 
   LAIGC =      0 
   NAIGC =      0 
   PAIGC =      0 
   LBIGC =      0 
   NBIGC =      0 
   PBIGC =      0 
   LCIGC =      0 
   NCIGC =      0 
   PCIGC =      0 
   LNIGC =      0 
   NNIGC =      0 
   PNIGC =      0 
   LAIGS =      0 
   NAIGS =      0 
   PAIGS =      0 
   LBIGS =      0 
   NBIGS =      0 
   PBIGS =      0 
   LCIGS =      0 
   NCIGS =      0 
   PCIGS =      0 
   LAIGD =      0 
   NAIGD =      0 
   PAIGD =      0 
   LBIGD =      0 
   NBIGD =      0 
   PBIGD =      0 
   LCIGD =      0 
   NCIGD =      0 
   PCIGD =      0 
   LPOXEDGE =      0 
   NPOXEDGE =      0 
   PPOXEDGE =      0 
   LAGIDL =      0 
   NAGIDL =      0 
   PAGIDL =      0 
   LBGIDL =      0 
   NBGIDL =      0 
   PBGIDL =      0 
   LEGIDL =      0 
   NEGIDL =      0 
   PEGIDL =      0 
   LAGISL =      0 
   NAGISL =      0 
   PAGISL =      0 
   LBGISL =      0 
   NBGISL =      0 
   PBGISL =      0 
   LEGISL =      0 
   NEGISL =      0 
   PEGISL =      0 
   LALPHA0 =      0 
   NALPHA0 =      0 
   PALPHA0 =      0 
   LALPHA1 =      0 
   NALPHA1 =      0 
   PALPHA1 =      0 
   LBETA0 =      0 
   NBETA0 =      0 
   PBETA0 =      0 
   LALPHAII =      0 
   NALPHAII =      0 
   PALPHAII =      0 
   LBETAII0 =      0 
   NBETAII0 =      0 
   PBETAII0 =      0 
   LBETAII1 =      0 
   NBETAII1 =      0 
   PBETAII1 =      0 
   LBETAII2 =      0 
   NBETAII2 =      0 
   PBETAII2 =      0 
   LESATII =      0 
   NESATII =      0 
   PESATII =      0 
   LLII =      0 
   NLII =      0 
   PLII =      0 
   LSII0 =      0 
   NSII0 =      0 
   PSII0 =      0 
   LSII1 =      0 
   NSII1 =      0 
   PSII1 =      0 
   LSII2 =      0 
   NSII2 =      0 
   PSII2 =      0 
   LSIID =      0 
   NSIID =      0 
   PSIID =      0 
   LCFS =      0 
   NCFS =      0 
   PCFS =      0 
   LCFD =      0 
   NCFD =      0 
   PCFD =      0 
   LCOVS =      0 
   NCOVS =      0 
   PCOVS =      0 
   LCOVD =      0 
   NCOVD =      0 
   PCOVD =      0 
   LCGSL =      0 
   NCGSL =      0 
   PCGSL =      0 
   LCGDL =      0 
   NCGDL =      0 
   PCGDL =      0 
   LCKAPPAS =      0 
   NCKAPPAS =      0 
   PCKAPPAS =      0 
   LCKAPPAD =      0 
   NCKAPPAD =      0 
   PCKAPPAD =      0 
   LCGBL =      0 
   NCGBL =      0 
   PCGBL =      0 
   LCKAPPAB =      0 
   NCKAPPAB =      0 
   PCKAPPAB =      0 
   LNTGEN =      0 
   NNTGEN =      0 
   PNTGEN =      0 
   LAIGEN =      0 
   NAIGEN =      0 
   PAIGEN =      0 
   LBIGEN =      0 
   NBIGEN =      0 
   PBIGEN =      0 
   LXRCRG1 =      0 
   NXRCRG1 =      0 
   PXRCRG1 =      0 
   LXRCRG2 =      0 
   NXRCRG2 =      0 
   PXRCRG2 =      0 
   LINTNOI =      0 
   NINTNOI =      0 
   PINTNOI =      0 
   LUTE =      0 
   NUTE =      0 
   PUTE =      0 
   LUTL =      0 
   NUTL =      0 
   PUTL =      0 
   LUA1 =      0 
   NUA1 =      0 
   PUA1 =      0 
   LUD1 =      0 
   NUD1 =      0 
   PUD1 =      0 
   LUCSTE =      0 
   NUCSTE =      0 
   PUCSTE =      0 
   LPTWGT =      0 
   NPTWGT =      0 
   PPTWGT =      0 
   LAT =      0 
   NAT =      0 
   PAT =      0 
   LSTTHETASAT =      0 
   NSTTHETASAT =      0 
   PSTTHETASAT =      0 
   LPRT =      0 
   NPRT =      0 
   PPRT =      0 
   LIIT =      0 
   NIIT =      0 
   PIIT =      0 
   LTII =      0 
   NTII =      0 
   PTII =      0 
   LTGIDL =      0 
   NTGIDL =      0 
   PTGIDL =      0 
   LIGT =      0 
   NIGT =      0 
   PIGT =      0 
   L = 1.1e-08 m
   D =  4e-08 m
   TFIN = 6.5e-09 m
   FPITCH = 2.2e-08 m
   NF = 1 
   NFIN = 1 
   NGCON = 1 
   ASEO =      0 m^2
   ADEO =      0 m^2
   PSEO =      0 m
   PDEO =      0 m
   ASEJ =      0 m^2
   ADEJ =      0 m^2
   PSEJ =      0 m
   PDEJ =      0 m
   CGSP =      0 F
   CGDP =      0 F
   CDSP =      0 F
   NRS =      0 
   NRD =      0 
   LRSD = 1.1e-08 m
   XL =      0 m
   DELVTRAND =      0 
   U0MULT =      1 
   IDS0MULT =      1 
   Lmin =  1e-08 m
   Lmax =  3e-08 m
   NFINmin = 0 
   NFINmax = 1 
   LVSAT1 =      0 
   NVSAT1 =      0 
   PVSAT1 =      0 
   LETAMOB =      0 
   NETAMOB =      0 
   PETAMOB =      0 
   LPCLMG =      0 
   NPCLMG =      0 
   PPCLMG =      0 
   LVASAT =      0 
   NVASAT =      0 
   PVASAT =      0 
   LAIGBACC =      0 
   NAIGBACC =      0 
   PAIGBACC =      0 
   LBIGBACC =      0 
   NBIGBACC =      0 
   PBIGBACC =      0 
   LCIGBACC =      0 
   NCIGBACC =      0 
   PCIGBACC =      0 
   LNIGBACC =      0 
   NNIGBACC =      0 
   PNIGBACC =      0 
 Model Name: nfet 
 BSIM-MG BULK Model(Level72)
   VERSION = 105.03  
   DEVTYPE = 1 
   BULKMOD = 1  
   COREMOD = 0 
   GEOMOD = 1 
   RDSMOD = 1 
   IGCMOD = 1 
   IGBMOD = 1 
   GIDLMOD = 0 
   IIMOD = 0 
   NQSMOD = 0 
   SHMOD = 0 
   RGATEMOD = 0 
   RGEOMOD = 1 
   CGEOMOD = 2 
   CAPMOD = 0 
   LINT =  2e-10 m
   LL =      0 m^(LLN+1)
   LLN =      1 
   DLC =      0 m
   DLBIN =      0 
   LLC =      0 m^(LLN+1)
   EOT = 6.2e-10 m
   TOXP = 1.15e-09 m
   EOTBOX = 1.4e-07 m
   HFIN = 1.8e-08 m
   FECH =      1 
   DELTAW =      0 m
   FECHCV =      1 
   DELTAWCV =      0 m
   NBODY =  1e+22 m^-3
   NSD =  3e+26 m^-3
   PHIG =  4.424 eV
   EPSROX =    3.9 
   EPSRSUB =   11.9 
   EASUB =   4.05 eV
   NI0SUB = 1.1e+16 m^-3
   BG0SUB =   1.12 eV
   NC0SUB = 2.86e+25 m^-3
   NGATE =      0 m^-3
   CIT = 1.3e-05 F/m^2
   CDSC =  0.039 F/m^2
   CDSCD =  0.007 F/m^2
   CDSCDR =  0.007 
   DVT0 =   0.01 
   DVT1 =   0.69 
   PHIN =   0.05 V
   ETA0 = 0.6785 
   ETA0R = 0.6785 
   DSUB =    0.9 
   K1RSCE =      0 V^1/2
   LPE0 =  5e-09 m
   DVTSHIFT =      0 
   QMFACTOR =      0 
   QMTCENIV =      0 
   QMTCENCV =      0 
   AQMTCEN =      0 
   BQMTCEN = 1.2e-08 
   ETAQM =   0.54 
   QM0 = 0.001143 
   PQM =   0.66 
   QM0ACC =  0.001 
   PQMACC =   0.66 
   VSAT = 1.6e+05 
   AVSAT =      0 
   BVSAT =  1e-07 
   VSAT1 = 1.6e+05 
   AVSAT1 =      0 
   BVSAT1 =  1e-07 
   DELTAVSAT =      1 
   KSATIV =    0.8 
   MEXP =      3 
   AMEXP =      0 
   BMEXP =      1 
   PTWG =      0 
   APTWG =      0 
   BPTWG =  1e-07 
   AT = -0.00156 
   TMEXP =      0 
   PTWGT =  0.004 
   U0 =  0.065 
   ETAMOB =      2 
   UP =      0 
   LPA =      1 
   UA =    0.3 
   AUA =      0 
   BUA =  1e-07 
   EU =    1.8 
   AEU =      0 
   BEU =  1e-07 
   UD =      0 
   AUD =      0 
   BUD =  5e-08 
   UCS =      0 
   UTE =      0 
   UTL = -0.0015 
   UA1 = 0.001032 
   UD1 =      0 
   UCSTE = -0.00478 
   RDSWMIN =      0 
   RDSW =    100 
   ARDSW =      0 
   BRDSW =  1e-07 
   RSWMIN =      0 
   RSW =      0 
   ARSW =      0 
   BRSW =  1e-07 
   RDWMIN =      0 
   RDW =      0 
   ARDW =      0 
   BRDW =  1e-07 
   PRWG =      0 
   WR =      1 
   PRT =  0.001 
   PDIBL1 =    1.3 
   PDIBL2 = 0.0002 
   DROUT =   1.06 
   PVAG =      1 
   PCLM =    0.2 
   APCLM =      0 
   BPCLM =  1e-07 
   PCLMG =      0 
   VASAT =    0.6 
   PCLMCV =  0.013 
   PCLMGCV =      0 
   VASATCV =    0.2 
   RGEXT =      0 ohm
   RGFIN =  0.001 ohm
   RSHS =      0 ohm
   RSHD =      0 ohm
   HEPI =  8e-09 m
   TSILI =  7e-09 m
   RHOC =  4e-13 ohm/m^2
   RHORSD =      1 ohm/m
   RHOEXT =      1 ohm/m
   CRATIO =    0.5 
   DELTAPRSD =      0 m
   SDTERM = 0 
   LSP = 2.2e-09 m
   LDG =  2e-09 m
   EPSRSP =    3.9 
   TGATE = 7.5e-09 m
   TMASK =      0 m
   ASILIEND =      0 m^2
   ARSDEND =      0 m^2
   PRSDEND =      0 m
   NSDE =  9e+25 m^-3
   RGEOA =      1 
   RGEOB =      0 m^-1
   RGEOC =      0 m^-1
   RGEOD =      0 m^-1
   RGEOE =      0 m^-1
   CGEOA =      1 
   CGEOB =      0 m^-1
   CGEOC =      0 m^-1
   CGEOD =      0 m^-1
   CGEOE =      1 
   AIGBINV = 0.0111 (Fs^2/g)^0.5m^-1
   BIGBINV =   0.03 (Fs^2/g)^0.5m^-1
   CIGBINV =  0.006 V^-1
   EIGBINV =    1.1 V
   NIGBINV =    1.2 
   AIGBACC = 0.0149 
   BIGBACC = 0.000949 
   CIGBACC =  0.075 
   NIGBACC =      3 
   AIGC = 0.0136 (Fs^2/g)^0.5m^-1
   BIGC = 0.00171 (Fs^2/g)^0.5m^-1V^-1
   CIGC =  0.075 V^-1
   NIGC =      1 
   DLCIGS =      0 m
   AIGS = 0.0136 (Fs^2/g)^0.5m^-1
   BIGS = 0.00171 (Fs^2/g)^0.5m^-1V^-1
   CIGS =  0.075 V^-1
   DLCIGD =      0 m
   AIGD = 0.0136 (Fs^2/g)^0.5m^-1
   BIGD = 0.00171 (Fs^2/g)^0.5m^-1V^-1
   CIGD =  0.075 V^-1
   POXEDGE =      1 
   AGIDL = 5.729e-12 ohm^-1
   BGIDL =  3e+08 V/m
   EGIDL =    0.1 V
   AGISL = 5.729e-12 ohm^-1
   BGISL =  3e+08 V/m
   EGISL =    0.1 V
   ALPHA0 =      0 mV^-1
   ALPHA1 =      0 V^-1
   BETA0 =     30 V^-1
   ALPHAII =      0 
   BETAII0 =      0 V^-1
   BETAII1 =      0 
   BETAII2 =    0.1 V
   ESATII =  1e+07 V/m
   LII =  5e-10 V/m
   SII0 =    0.5 V^-1
   SII1 =    0.1 
   SII2 =      0 V
   SIID =      0 V
   EOTACC = 6.2e-10 m
   DELVFBACC =      0 V
   CFS = 2.56e-11 F/m
   CFD = 2.65e-11 F/m
   COVS = 2.5e-11 F/m
   COVD = 2.5e-11 F/m
   CGSO =      0 F/m
   CGDO =      0 F/m
   CGSL =      0 F/m
   CGDL =      0 F/m
   CKAPPAS =    0.6 V
   CKAPPAD =    0.6 V
   CGBO =      0 F/m
   CGBL =      0 F/m
   CKAPPAB =    0.6 V
   CSDESW =      0 F/m
   CJS = 0.0005 F/m^2
   CJD = 0.0005 F/m^2
   CJSWS =  5e-10 F/m
   CJSWD =  5e-10 F/m
   CJSWGS =      0 F/m
   CJSWGD =      0 F/m
   PBS =      1 V
   PBD =      1 V
   PBSWS =      1 V
   PBSWD =      1 V
   PBSWGS =      1 V
   PBSWGD =      1 V
   MJS, =    0.5 
   MJD =    0.5 
   MJSWS =   0.33 
   MJSWD =   0.33 
   MJSWGS =   0.33 
   MJSWGD =   0.33 
   SJS =      0 
   SJD =      0 
   SJSWS =      0 
   SJSWD =      0 
   SJSWGS =      0 
   SJSWGD =      0 
   MJS2 =  0.125 
   MJD2 =  0.125 
   MJSWS2 =   0.33 
   MJSWD2 =   0.33 
   MJSWGS2 =   0.33 
   MJSWGD2 =   0.33 
   JSS = 0.0001 A/m^2
   JSD = 0.0001 A/m^2
   JSWS =      0 A/m
   JSWD =      0 A/m
   JSWGS =      0 A/m
   JSWGD =      0 A/m
   NJS =      1 
   NJD =      1 
   IJTHSFWD =    0.1 A
   IJTHDFWD =    0.1 A
   IJTHSREV =    0.1 A
   IJTHDREV =    0.1 A
   BVS =     10 V
   BVD =     10 V
   XJBVS =      1 
   XJBVD =      1 
   JTSS =      0 A/m^2
   JTSD =      0 A/m^2
   JTSSWS =      0 A/m
   JTSSWD =      0 A/m
   JTSSWGS =      0 A/m
   JTSSWGD =      0 A/m
   JTWEFF =      0 m
   NJTS =     20 
   NJTSD =     20 
   NJTSSW =     20 
   NJTSSWD =     20 
   NJTSSWG =     20 
   NJTSSWGD =     20 
   VTSS =     10 V
   VTSD =     10 V
   VTSSWS =     10 V
   VTSSWD =     10 V
   VTSSWGS =     10 V
   VTSSWGD =     10 V
   LINTIGEN =      0 m
   NTGEN =      1 
   AIGEN =      0 m^-3V^-1
   BIGEN =      0 m^-3V^-3
   XRCRG1 =     12 
   XRCRG2 =      1 
   NSEG = 5 
   EF =      1 
   EM = 4.1e+07 V/m
   NOIA = 6.25e+39 eV^-1s^1-EFm^-3
   NOIB = 3.125e+24 eV^-1s^1-EFm^-1
   NOIC = 8.75e+07 eV^-1s^1-EFm
   NTNOI =      1 
   TNOM =  300.1 K
   TBGASUB = 0.000702 eV/K
   TBGBSUB =   1108 K
   KT1 =      0 V
   KT1L =      0 Vm
   IIT =   -0.5 
   TII =      0 
   TGIDL = -0.0003 K^-1
   IGT =    2.5 
   TCJ =      0 K^-1
   TCJSW =      0 K^-1
   TCJSWG =      0 K^-1
   TPB =      0 K^-1
   TPBSW =      0 K^-1
   TPBSWG =      0 K^-1
   XTIS =      3 
   XTID =      3 
   XTSS =   0.02 
   XTSD =   0.02 
   XTSSWS =   0.02 
   XTSSWD =   0.02 
   XTSSWGS =   0.02 
   XTSSWGD =   0.02 
   TNJTS =      0 
   TNJTSD =      0 
   TNJTSSW =      0 
   TNJTSSWD =      0 
   TNJTSSWG =      0 
   TNJTSSWGD =      0 
   RTH0 =   0.01 ohm
   CTH0 =  1e-05 F
   WTH0 =      0 m
   LNBODY =      0 
   NNBODY =      0 
   PNBODY =      0 
   LPHIG =      0 
   NPHIG =      0 
   PPHIG =      0 
   LNGATE =      0 
   NNGATE =      0 
   PNGATE =      0 
   LCIT =      0 
   NCIT =      0 
   PCIT =      0 
   LCDSC =      0 
   NCDSC =      0 
   PCDSC =      0 
   LCDSCD =      0 
   NCDSCD =      0 
   PCDSCD =      0 
   LCDSCDR =      0 
   NCDSCDR =      0 
   PCDSCDR =      0 
   LDVT0 =      0 
   NDVT0 =      0 
   PDVT0 =      0 
   LDVT1 =      0 
   NDVT1 =      0 
   PDVT1 =      0 
   LPHIN =      0 
   NPHIN =      0 
   PPHIN =      0 
   LETA0 =      0 
   NETA0 =      0 
   PETA0 =      0 
   LETA0R =      0 
   NETA0R =      0 
   PETA0R =      0 
   LDSUB =      0 
   NDSUB =      0 
   PDSUB =      0 
   LK1RSCE =      0 
   NK1RSCE =      0 
   PK1RSCE =      0 
   LLPE0 =      0 
   NLPE0 =      0 
   PLPE0 =      0 
   LQMFACTOR =      0 
   NQMFACTOR =      0 
   PQMFACTOR =      0 
   LQMTCENIV =      0 
   NQMTCENIV =      0 
   PQMTCENIV =      0 
   LQMTCENCV =      0 
   NQMTCENCV =      0 
   PQMTCENCV =      0 
   LVSAT =      0 
   NVSAT =      0 
   PVSAT =      0 
   LKSATIV =      0 
   NKSATIV =      0 
   PKSATIV =      0 
   LMEXP =      0 
   NMEXP =      0 
   PMEXP =      0 
   LPTWG =      0 
   NPTWG =      0 
   PPTWG =      0 
   LTHETASAT =      0 
   NTHETASAT =      0 
   PTHETASAT =      0 
   LU0 =      0 
   NU0 =      0 
   PU0 =      0 
   LUP =      0 
   NUP =      0 
   PUP =      0 
   LUA =      0 
   NUA =      0 
   PUA =      0 
   LEU =      0 
   NEU =      0 
   PEU =      0 
   LUD =      0 
   NUD =      0 
   PUD =      0 
   LUCS =      0 
   NUCS =      0 
   PUCS =      0 
   LPCLM =      0 
   NPCLM =      0 
   PPCLM =      0 
   LPCLMCV =      0 
   NPCLMCV =      0 
   PPCLMCV =      0 
   LRDSW =      0 
   NRDSW =      0 
   PRDSW =      0 
   LRSW =      0 
   NRSW =      0 
   PRSW =      0 
   LRDW =      0 
   NRDW =      0 
   PRDW =      0 
   LPRWG =      0 
   NPRWG =      0 
   PPRWG =      0 
   LWR =      0 
   NWR =      0 
   PWR =      0 
   LPDIBL1 =      0 
   NPDIBL1 =      0 
   PPDIBL1 =      0 
   LPDIBL2 =      0 
   NPDIBL2 =      0 
   PPDIBL2 =      0 
   LDROUT =      0 
   NDROUT =      0 
   PDROUT =      0 
   LPVAG =      0 
   NPVAG =      0 
   PPVAG =      0 
   LAIGBINV =      0 
   NAIGBINV =      0 
   PAIGBINV =      0 
   LBIGBINV =      0 
   NBIGBINV =      0 
   PBIGBINV =      0 
   LCIGBINV =      0 
   NCIGBINV =      0 
   PCIGBINV =      0 
   LEIGBINV =      0 
   NEIGBINV =      0 
   PEIGBINV =      0 
   LNIGBINV =      0 
   NNIGBINV =      0 
   PNIGBINV =      0 
   LAIGC =      0 
   NAIGC =      0 
   PAIGC =      0 
   LBIGC =      0 
   NBIGC =      0 
   PBIGC =      0 
   LCIGC =      0 
   NCIGC =      0 
   PCIGC =      0 
   LNIGC =      0 
   NNIGC =      0 
   PNIGC =      0 
   LAIGS =      0 
   NAIGS =      0 
   PAIGS =      0 
   LBIGS =      0 
   NBIGS =      0 
   PBIGS =      0 
   LCIGS =      0 
   NCIGS =      0 
   PCIGS =      0 
   LAIGD =      0 
   NAIGD =      0 
   PAIGD =      0 
   LBIGD =      0 
   NBIGD =      0 
   PBIGD =      0 
   LCIGD =      0 
   NCIGD =      0 
   PCIGD =      0 
   LPOXEDGE =      0 
   NPOXEDGE =      0 
   PPOXEDGE =      0 
   LAGIDL =      0 
   NAGIDL =      0 
   PAGIDL =      0 
   LBGIDL =      0 
   NBGIDL =      0 
   PBGIDL =      0 
   LEGIDL =      0 
   NEGIDL =      0 
   PEGIDL =      0 
   LAGISL =      0 
   NAGISL =      0 
   PAGISL =      0 
   LBGISL =      0 
   NBGISL =      0 
   PBGISL =      0 
   LEGISL =      0 
   NEGISL =      0 
   PEGISL =      0 
   LALPHA0 =      0 
   NALPHA0 =      0 
   PALPHA0 =      0 
   LALPHA1 =      0 
   NALPHA1 =      0 
   PALPHA1 =      0 
   LBETA0 =      0 
   NBETA0 =      0 
   PBETA0 =      0 
   LALPHAII =      0 
   NALPHAII =      0 
   PALPHAII =      0 
   LBETAII0 =      0 
   NBETAII0 =      0 
   PBETAII0 =      0 
   LBETAII1 =      0 
   NBETAII1 =      0 
   PBETAII1 =      0 
   LBETAII2 =      0 
   NBETAII2 =      0 
   PBETAII2 =      0 
   LESATII =      0 
   NESATII =      0 
   PESATII =      0 
   LLII =      0 
   NLII =      0 
   PLII =      0 
   LSII0 =      0 
   NSII0 =      0 
   PSII0 =      0 
   LSII1 =      0 
   NSII1 =      0 
   PSII1 =      0 
   LSII2 =      0 
   NSII2 =      0 
   PSII2 =      0 
   LSIID =      0 
   NSIID =      0 
   PSIID =      0 
   LCFS =      0 
   NCFS =      0 
   PCFS =      0 
   LCFD =      0 
   NCFD =      0 
   PCFD =      0 
   LCOVS =      0 
   NCOVS =      0 
   PCOVS =      0 
   LCOVD =      0 
   NCOVD =      0 
   PCOVD =      0 
   LCGSL =      0 
   NCGSL =      0 
   PCGSL =      0 
   LCGDL =      0 
   NCGDL =      0 
   PCGDL =      0 
   LCKAPPAS =      0 
   NCKAPPAS =      0 
   PCKAPPAS =      0 
   LCKAPPAD =      0 
   NCKAPPAD =      0 
   PCKAPPAD =      0 
   LCGBL =      0 
   NCGBL =      0 
   PCGBL =      0 
   LCKAPPAB =      0 
   NCKAPPAB =      0 
   PCKAPPAB =      0 
   LNTGEN =      0 
   NNTGEN =      0 
   PNTGEN =      0 
   LAIGEN =      0 
   NAIGEN =      0 
   PAIGEN =      0 
   LBIGEN =      0 
   NBIGEN =      0 
   PBIGEN =      0 
   LXRCRG1 =      0 
   NXRCRG1 =      0 
   PXRCRG1 =      0 
   LXRCRG2 =      0 
   NXRCRG2 =      0 
   PXRCRG2 =      0 
   LINTNOI =      0 
   NINTNOI =      0 
   PINTNOI =      0 
   LUTE =      0 
   NUTE =      0 
   PUTE =      0 
   LUTL =      0 
   NUTL =      0 
   PUTL =      0 
   LUA1 =      0 
   NUA1 =      0 
   PUA1 =      0 
   LUD1 =      0 
   NUD1 =      0 
   PUD1 =      0 
   LUCSTE =      0 
   NUCSTE =      0 
   PUCSTE =      0 
   LPTWGT =      0 
   NPTWGT =      0 
   PPTWGT =      0 
   LAT =      0 
   NAT =      0 
   PAT =      0 
   LSTTHETASAT =      0 
   NSTTHETASAT =      0 
   PSTTHETASAT =      0 
   LPRT =      0 
   NPRT =      0 
   PPRT =      0 
   LIIT =      0 
   NIIT =      0 
   PIIT =      0 
   LTII =      0 
   NTII =      0 
   PTII =      0 
   LTGIDL =      0 
   NTGIDL =      0 
   PTGIDL =      0 
   LIGT =      0 
   NIGT =      0 
   PIGT =      0 
   L = 1.1e-08 m
   D =  4e-08 m
   TFIN = 6.5e-09 m
   FPITCH = 2.2e-08 m
   NF = 1 
   NFIN = 1 
   NGCON = 1 
   ASEO =      0 m^2
   ADEO =      0 m^2
   PSEO =      0 m
   PDEO =      0 m
   ASEJ =      0 m^2
   ADEJ =      0 m^2
   PSEJ =      0 m
   PDEJ =      0 m
   CGSP =      0 F
   CGDP =      0 F
   CDSP =      0 F
   NRS =      0 
   NRD =      0 
   LRSD = 1.1e-08 m
   XL =      0 m
   DELVTRAND =      0 
   U0MULT =      1 
   IDS0MULT =      1 
   Lmin =  1e-08 m
   Lmax =  3e-08 m
   NFINmin = 0 
   NFINmax = 1 
   LVSAT1 =      0 
   NVSAT1 =      0 
   PVSAT1 =      0 
   LETAMOB =      0 
   NETAMOB =      0 
   PETAMOB =      0 
   LPCLMG =      0 
   NPCLMG =      0 
   PPCLMG =      0 
   LVASAT =      0 
   NVASAT =      0 
   PVASAT =      0 
   LAIGBACC =      0 
   NAIGBACC =      0 
   PAIGBACC =      0 
   LBIGBACC =      0 
   NBIGBACC =      0 
   PBIGBACC =      0 
   LCIGBACC =      0 
   NCIGBACC =      0 
   PCIGBACC =      0 
   LNIGBACC =      0 
   NNIGBACC =      0 
   PNIGBACC =      0 
 Model Name: pfet 
 BSIM-MG BULK Model(Level72)
   VERSION = 105.03  
   DEVTYPE = -1 
   BULKMOD = 1  
   COREMOD = 0 
   GEOMOD = 1 
   RDSMOD = 1 
   IGCMOD = 1 
   IGBMOD = 1 
   GIDLMOD = 0 
   IIMOD = 0 
   NQSMOD = 0 
   SHMOD = 0 
   RGATEMOD = 0 
   RGEOMOD = 1 
   CGEOMOD = 2 
   CAPMOD = 0 
   LINT =  2e-10 m
   LL =      0 m^(LLN+1)
   LLN =      1 
   DLC =      0 m
   DLBIN =      0 
   LLC =      0 m^(LLN+1)
   EOT = 6.2e-10 m
   TOXP = 1.15e-09 m
   EOTBOX = 1.4e-07 m
   HFIN = 1.8e-08 m
   FECH =      1 
   DELTAW =      0 m
   FECHCV =      1 
   DELTAWCV =      0 m
   NBODY =  1e+22 m^-3
   NSD =  3e+26 m^-3
   PHIG =  4.747 eV
   EPSROX =    3.9 
   EPSRSUB =   11.9 
   EASUB =   4.05 eV
   NI0SUB = 1.1e+16 m^-3
   BG0SUB =   1.12 eV
   NC0SUB = 2.86e+25 m^-3
   NGATE =      0 m^-3
   CIT = 1.3e-05 F/m^2
   CDSC =  0.039 F/m^2
   CDSCD =  0.007 F/m^2
   CDSCDR =  0.007 
   DVT0 =   0.01 
   DVT1 =   0.69 
   PHIN =   0.05 V
   ETA0 =   0.97 
   ETA0R =   0.97 
   DSUB =    0.9 
   K1RSCE =      0 V^1/2
   LPE0 =  5e-09 m
   DVTSHIFT =      0 
   QMFACTOR =      0 
   QMTCENIV =      0 
   QMTCENCV =      0 
   AQMTCEN =      0 
   BQMTCEN = 1.2e-08 
   ETAQM =   0.54 
   QM0 = 0.001143 
   PQM =   0.66 
   QM0ACC =  0.001 
   PQMACC =   0.66 
   VSAT = 1.53e+05 
   AVSAT =      0 
   BVSAT =  1e-07 
   VSAT1 = 1.53e+05 
   AVSAT1 =      0 
   BVSAT1 =  1e-07 
   DELTAVSAT =      1 
   KSATIV =    0.8 
   MEXP =      3 
   AMEXP =      0 
   BMEXP =      1 
   PTWG =      0 
   APTWG =      0 
   BPTWG =  1e-07 
   AT = -0.00156 
   TMEXP =      0 
   PTWGT =  0.004 
   U0 =  0.042 
   ETAMOB =      2 
   UP =      0 
   LPA =      1 
   UA =    0.3 
   AUA =      0 
   BUA =  1e-07 
   EU =    1.8 
   AEU =      0 
   BEU =  1e-07 
   UD =      0 
   AUD =      0 
   BUD =  5e-08 
   UCS =      0 
   UTE =      0 
   UTL = -0.0015 
   UA1 = 0.001032 
   UD1 =      0 
   UCSTE = -0.00478 
   RDSWMIN =      0 
   RDSW =    100 
   ARDSW =      0 
   BRDSW =  1e-07 
   RSWMIN =      0 
   RSW =      0 
   ARSW =      0 
   BRSW =  1e-07 
   RDWMIN =      0 
   RDW =      0 
   ARDW =      0 
   BRDW =  1e-07 
   PRWG =      0 
   WR =      1 
   PRT =  0.001 
   PDIBL1 =    1.3 
   PDIBL2 = 0.0002 
   DROUT =   1.06 
   PVAG =      1 
   PCLM =    0.2 
   APCLM =      0 
   BPCLM =  1e-07 
   PCLMG =      0 
   VASAT =    0.6 
   PCLMCV =  0.013 
   PCLMGCV =      0 
   VASATCV =    0.2 
   RGEXT =      0 ohm
   RGFIN =  0.001 ohm
   RSHS =      0 ohm
   RSHD =      0 ohm
   HEPI =  8e-09 m
   TSILI =  7e-09 m
   RHOC =  5e-13 ohm/m^2
   RHORSD =      1 ohm/m
   RHOEXT =      1 ohm/m
   CRATIO =    0.5 
   DELTAPRSD =      0 m
   SDTERM = 0 
   LSP = 2.2e-09 m
   LDG =  2e-09 m
   EPSRSP =    3.9 
   TGATE = 7.5e-09 m
   TMASK =      0 m
   ASILIEND =      0 m^2
   ARSDEND =      0 m^2
   PRSDEND =      0 m
   NSDE =  9e+25 m^-3
   RGEOA =      1 
   RGEOB =      0 m^-1
   RGEOC =      0 m^-1
   RGEOD =      0 m^-1
   RGEOE =      0 m^-1
   CGEOA =      1 
   CGEOB =      0 m^-1
   CGEOC =      0 m^-1
   CGEOD =      0 m^-1
   CGEOE =      1 
   AIGBINV = 0.0111 (Fs^2/g)^0.5m^-1
   BIGBINV =   0.03 (Fs^2/g)^0.5m^-1
   CIGBINV =  0.006 V^-1
   EIGBINV =    1.1 V
   NIGBINV =    1.2 
   AIGBACC = 0.0149 
   BIGBACC = 0.000949 
   CIGBACC =  0.075 
   NIGBACC =      3 
   AIGC = 0.0136 (Fs^2/g)^0.5m^-1
   BIGC = 0.00171 (Fs^2/g)^0.5m^-1V^-1
   CIGC =  0.075 V^-1
   NIGC =      1 
   DLCIGS =      0 m
   AIGS = 0.0136 (Fs^2/g)^0.5m^-1
   BIGS = 0.00171 (Fs^2/g)^0.5m^-1V^-1
   CIGS =  0.075 V^-1
   DLCIGD =      0 m
   AIGD = 0.0136 (Fs^2/g)^0.5m^-1
   BIGD = 0.00171 (Fs^2/g)^0.5m^-1V^-1
   CIGD =  0.075 V^-1
   POXEDGE =      1 
   AGIDL = 5.729e-12 ohm^-1
   BGIDL =  3e+08 V/m
   EGIDL =    0.1 V
   AGISL = 5.729e-12 ohm^-1
   BGISL =  3e+08 V/m
   EGISL =    0.1 V
   ALPHA0 =      0 mV^-1
   ALPHA1 =      0 V^-1
   BETA0 =     30 V^-1
   ALPHAII =      0 
   BETAII0 =      0 V^-1
   BETAII1 =      0 
   BETAII2 =    0.1 V
   ESATII =  1e+07 V/m
   LII =  5e-10 V/m
   SII0 =    0.5 V^-1
   SII1 =    0.1 
   SII2 =      0 V
   SIID =      0 V
   EOTACC = 6.2e-10 m
   DELVFBACC =      0 V
   CFS = 2.56e-11 F/m
   CFD = 2.65e-11 F/m
   COVS = 2.5e-11 F/m
   COVD = 2.5e-11 F/m
   CGSO =      0 F/m
   CGDO =      0 F/m
   CGSL =      0 F/m
   CGDL =      0 F/m
   CKAPPAS =    0.6 V
   CKAPPAD =    0.6 V
   CGBO =      0 F/m
   CGBL =      0 F/m
   CKAPPAB =    0.6 V
   CSDESW =      0 F/m
   CJS = 0.0005 F/m^2
   CJD = 0.0005 F/m^2
   CJSWS =  5e-10 F/m
   CJSWD =  5e-10 F/m
   CJSWGS =      0 F/m
   CJSWGD =      0 F/m
   PBS =      1 V
   PBD =      1 V
   PBSWS =      1 V
   PBSWD =      1 V
   PBSWGS =      1 V
   PBSWGD =      1 V
   MJS, =    0.5 
   MJD =    0.5 
   MJSWS =   0.33 
   MJSWD =   0.33 
   MJSWGS =   0.33 
   MJSWGD =   0.33 
   SJS =      0 
   SJD =      0 
   SJSWS =      0 
   SJSWD =      0 
   SJSWGS =      0 
   SJSWGD =      0 
   MJS2 =  0.125 
   MJD2 =  0.125 
   MJSWS2 =   0.33 
   MJSWD2 =   0.33 
   MJSWGS2 =   0.33 
   MJSWGD2 =   0.33 
   JSS = 0.0001 A/m^2
   JSD = 0.0001 A/m^2
   JSWS =      0 A/m
   JSWD =      0 A/m
   JSWGS =      0 A/m
   JSWGD =      0 A/m
   NJS =      1 
   NJD =      1 
   IJTHSFWD =    0.1 A
   IJTHDFWD =    0.1 A
   IJTHSREV =    0.1 A
   IJTHDREV =    0.1 A
   BVS =     10 V
   BVD =     10 V
   XJBVS =      1 
   XJBVD =      1 
   JTSS =      0 A/m^2
   JTSD =      0 A/m^2
   JTSSWS =      0 A/m
   JTSSWD =      0 A/m
   JTSSWGS =      0 A/m
   JTSSWGD =      0 A/m
   JTWEFF =      0 m
   NJTS =     20 
   NJTSD =     20 
   NJTSSW =     20 
   NJTSSWD =     20 
   NJTSSWG =     20 
   NJTSSWGD =     20 
   VTSS =     10 V
   VTSD =     10 V
   VTSSWS =     10 V
   VTSSWD =     10 V
   VTSSWGS =     10 V
   VTSSWGD =     10 V
   LINTIGEN =      0 m
   NTGEN =      1 
   AIGEN =      0 m^-3V^-1
   BIGEN =      0 m^-3V^-3
   XRCRG1 =     12 
   XRCRG2 =      1 
   NSEG = 5 
   EF =      1 
   EM = 4.1e+07 V/m
   NOIA = 6.25e+39 eV^-1s^1-EFm^-3
   NOIB = 3.125e+24 eV^-1s^1-EFm^-1
   NOIC = 8.75e+07 eV^-1s^1-EFm
   NTNOI =      1 
   TNOM =  300.1 K
   TBGASUB = 0.000702 eV/K
   TBGBSUB =   1108 K
   KT1 =      0 V
   KT1L =      0 Vm
   IIT =   -0.5 
   TII =      0 
   TGIDL = -0.0003 K^-1
   IGT =    2.5 
   TCJ =      0 K^-1
   TCJSW =      0 K^-1
   TCJSWG =      0 K^-1
   TPB =      0 K^-1
   TPBSW =      0 K^-1
   TPBSWG =      0 K^-1
   XTIS =      3 
   XTID =      3 
   XTSS =   0.02 
   XTSD =   0.02 
   XTSSWS =   0.02 
   XTSSWD =   0.02 
   XTSSWGS =   0.02 
   XTSSWGD =   0.02 
   TNJTS =      0 
   TNJTSD =      0 
   TNJTSSW =      0 
   TNJTSSWD =      0 
   TNJTSSWG =      0 
   TNJTSSWGD =      0 
   RTH0 =   0.01 ohm
   CTH0 =  1e-05 F
   WTH0 =      0 m
   LNBODY =      0 
   NNBODY =      0 
   PNBODY =      0 
   LPHIG =      0 
   NPHIG =      0 
   PPHIG =      0 
   LNGATE =      0 
   NNGATE =      0 
   PNGATE =      0 
   LCIT =      0 
   NCIT =      0 
   PCIT =      0 
   LCDSC =      0 
   NCDSC =      0 
   PCDSC =      0 
   LCDSCD =      0 
   NCDSCD =      0 
   PCDSCD =      0 
   LCDSCDR =      0 
   NCDSCDR =      0 
   PCDSCDR =      0 
   LDVT0 =      0 
   NDVT0 =      0 
   PDVT0 =      0 
   LDVT1 =      0 
   NDVT1 =      0 
   PDVT1 =      0 
   LPHIN =      0 
   NPHIN =      0 
   PPHIN =      0 
   LETA0 =      0 
   NETA0 =      0 
   PETA0 =      0 
   LETA0R =      0 
   NETA0R =      0 
   PETA0R =      0 
   LDSUB =      0 
   NDSUB =      0 
   PDSUB =      0 
   LK1RSCE =      0 
   NK1RSCE =      0 
   PK1RSCE =      0 
   LLPE0 =      0 
   NLPE0 =      0 
   PLPE0 =      0 
   LQMFACTOR =      0 
   NQMFACTOR =      0 
   PQMFACTOR =      0 
   LQMTCENIV =      0 
   NQMTCENIV =      0 
   PQMTCENIV =      0 
   LQMTCENCV =      0 
   NQMTCENCV =      0 
   PQMTCENCV =      0 
   LVSAT =      0 
   NVSAT =      0 
   PVSAT =      0 
   LKSATIV =      0 
   NKSATIV =      0 
   PKSATIV =      0 
   LMEXP =      0 
   NMEXP =      0 
   PMEXP =      0 
   LPTWG =      0 
   NPTWG =      0 
   PPTWG =      0 
   LTHETASAT =      0 
   NTHETASAT =      0 
   PTHETASAT =      0 
   LU0 =      0 
   NU0 =      0 
   PU0 =      0 
   LUP =      0 
   NUP =      0 
   PUP =      0 
   LUA =      0 
   NUA =      0 
   PUA =      0 
   LEU =      0 
   NEU =      0 
   PEU =      0 
   LUD =      0 
   NUD =      0 
   PUD =      0 
   LUCS =      0 
   NUCS =      0 
   PUCS =      0 
   LPCLM =      0 
   NPCLM =      0 
   PPCLM =      0 
   LPCLMCV =      0 
   NPCLMCV =      0 
   PPCLMCV =      0 
   LRDSW =      0 
   NRDSW =      0 
   PRDSW =      0 
   LRSW =      0 
   NRSW =      0 
   PRSW =      0 
   LRDW =      0 
   NRDW =      0 
   PRDW =      0 
   LPRWG =      0 
   NPRWG =      0 
   PPRWG =      0 
   LWR =      0 
   NWR =      0 
   PWR =      0 
   LPDIBL1 =      0 
   NPDIBL1 =      0 
   PPDIBL1 =      0 
   LPDIBL2 =      0 
   NPDIBL2 =      0 
   PPDIBL2 =      0 
   LDROUT =      0 
   NDROUT =      0 
   PDROUT =      0 
   LPVAG =      0 
   NPVAG =      0 
   PPVAG =      0 
   LAIGBINV =      0 
   NAIGBINV =      0 
   PAIGBINV =      0 
   LBIGBINV =      0 
   NBIGBINV =      0 
   PBIGBINV =      0 
   LCIGBINV =      0 
   NCIGBINV =      0 
   PCIGBINV =      0 
   LEIGBINV =      0 
   NEIGBINV =      0 
   PEIGBINV =      0 
   LNIGBINV =      0 
   NNIGBINV =      0 
   PNIGBINV =      0 
   LAIGC =      0 
   NAIGC =      0 
   PAIGC =      0 
   LBIGC =      0 
   NBIGC =      0 
   PBIGC =      0 
   LCIGC =      0 
   NCIGC =      0 
   PCIGC =      0 
   LNIGC =      0 
   NNIGC =      0 
   PNIGC =      0 
   LAIGS =      0 
   NAIGS =      0 
   PAIGS =      0 
   LBIGS =      0 
   NBIGS =      0 
   PBIGS =      0 
   LCIGS =      0 
   NCIGS =      0 
   PCIGS =      0 
   LAIGD =      0 
   NAIGD =      0 
   PAIGD =      0 
   LBIGD =      0 
   NBIGD =      0 
   PBIGD =      0 
   LCIGD =      0 
   NCIGD =      0 
   PCIGD =      0 
   LPOXEDGE =      0 
   NPOXEDGE =      0 
   PPOXEDGE =      0 
   LAGIDL =      0 
   NAGIDL =      0 
   PAGIDL =      0 
   LBGIDL =      0 
   NBGIDL =      0 
   PBGIDL =      0 
   LEGIDL =      0 
   NEGIDL =      0 
   PEGIDL =      0 
   LAGISL =      0 
   NAGISL =      0 
   PAGISL =      0 
   LBGISL =      0 
   NBGISL =      0 
   PBGISL =      0 
   LEGISL =      0 
   NEGISL =      0 
   PEGISL =      0 
   LALPHA0 =      0 
   NALPHA0 =      0 
   PALPHA0 =      0 
   LALPHA1 =      0 
   NALPHA1 =      0 
   PALPHA1 =      0 
   LBETA0 =      0 
   NBETA0 =      0 
   PBETA0 =      0 
   LALPHAII =      0 
   NALPHAII =      0 
   PALPHAII =      0 
   LBETAII0 =      0 
   NBETAII0 =      0 
   PBETAII0 =      0 
   LBETAII1 =      0 
   NBETAII1 =      0 
   PBETAII1 =      0 
   LBETAII2 =      0 
   NBETAII2 =      0 
   PBETAII2 =      0 
   LESATII =      0 
   NESATII =      0 
   PESATII =      0 
   LLII =      0 
   NLII =      0 
   PLII =      0 
   LSII0 =      0 
   NSII0 =      0 
   PSII0 =      0 
   LSII1 =      0 
   NSII1 =      0 
   PSII1 =      0 
   LSII2 =      0 
   NSII2 =      0 
   PSII2 =      0 
   LSIID =      0 
   NSIID =      0 
   PSIID =      0 
   LCFS =      0 
   NCFS =      0 
   PCFS =      0 
   LCFD =      0 
   NCFD =      0 
   PCFD =      0 
   LCOVS =      0 
   NCOVS =      0 
   PCOVS =      0 
   LCOVD =      0 
   NCOVD =      0 
   PCOVD =      0 
   LCGSL =      0 
   NCGSL =      0 
   PCGSL =      0 
   LCGDL =      0 
   NCGDL =      0 
   PCGDL =      0 
   LCKAPPAS =      0 
   NCKAPPAS =      0 
   PCKAPPAS =      0 
   LCKAPPAD =      0 
   NCKAPPAD =      0 
   PCKAPPAD =      0 
   LCGBL =      0 
   NCGBL =      0 
   PCGBL =      0 
   LCKAPPAB =      0 
   NCKAPPAB =      0 
   PCKAPPAB =      0 
   LNTGEN =      0 
   NNTGEN =      0 
   PNTGEN =      0 
   LAIGEN =      0 
   NAIGEN =      0 
   PAIGEN =      0 
   LBIGEN =      0 
   NBIGEN =      0 
   PBIGEN =      0 
   LXRCRG1 =      0 
   NXRCRG1 =      0 
   PXRCRG1 =      0 
   LXRCRG2 =      0 
   NXRCRG2 =      0 
   PXRCRG2 =      0 
   LINTNOI =      0 
   NINTNOI =      0 
   PINTNOI =      0 
   LUTE =      0 
   NUTE =      0 
   PUTE =      0 
   LUTL =      0 
   NUTL =      0 
   PUTL =      0 
   LUA1 =      0 
   NUA1 =      0 
   PUA1 =      0 
   LUD1 =      0 
   NUD1 =      0 
   PUD1 =      0 
   LUCSTE =      0 
   NUCSTE =      0 
   PUCSTE =      0 
   LPTWGT =      0 
   NPTWGT =      0 
   PPTWGT =      0 
   LAT =      0 
   NAT =      0 
   PAT =      0 
   LSTTHETASAT =      0 
   NSTTHETASAT =      0 
   PSTTHETASAT =      0 
   LPRT =      0 
   NPRT =      0 
   PPRT =      0 
   LIIT =      0 
   NIIT =      0 
   PIIT =      0 
   LTII =      0 
   NTII =      0 
   PTII =      0 
   LTGIDL =      0 
   NTGIDL =      0 
   PTGIDL =      0 
   LIGT =      0 
   NIGT =      0 
   PIGT =      0 
   L = 1.1e-08 m
   D =  4e-08 m
   TFIN = 6.5e-09 m
   FPITCH = 2.2e-08 m
   NF = 1 
   NFIN = 1 
   NGCON = 1 
   ASEO =      0 m^2
   ADEO =      0 m^2
   PSEO =      0 m
   PDEO =      0 m
   ASEJ =      0 m^2
   ADEJ =      0 m^2
   PSEJ =      0 m
   PDEJ =      0 m
   CGSP =      0 F
   CGDP =      0 F
   CDSP =      0 F
   NRS =      0 
   NRD =      0 
   LRSD = 1.1e-08 m
   XL =      0 m
   DELVTRAND =      0 
   U0MULT =      1 
   IDS0MULT =      1 
   Lmin =  1e-08 m
   Lmax =  3e-08 m
   NFINmin = 0 
   NFINmax = 1 
   LVSAT1 =      0 
   NVSAT1 =      0 
   PVSAT1 =      0 
   LETAMOB =      0 
   NETAMOB =      0 
   PETAMOB =      0 
   LPCLMG =      0 
   NPCLMG =      0 
   PPCLMG =      0 
   LVASAT =      0 
   NVASAT =      0 
   PVASAT =      0 
   LAIGBACC =      0 
   NAIGBACC =      0 
   PAIGBACC =      0 
   LBIGBACC =      0 
   NBIGBACC =      0 
   PBIGBACC =      0 
   LCIGBACC =      0 
   NCIGBACC =      0 
   PCIGBACC =      0 
   LNIGBACC =      0 
   NNIGBACC =      0 
   PNIGBACC =      0 
 Model Name: nfet 
 BSIM-MG BULK Model(Level72)
   VERSION = 105.03  
   DEVTYPE = 1 
   BULKMOD = 1  
   COREMOD = 0 
   GEOMOD = 1 
   RDSMOD = 1 
   IGCMOD = 1 
   IGBMOD = 1 
   GIDLMOD = 0 
   IIMOD = 0 
   NQSMOD = 0 
   SHMOD = 0 
   RGATEMOD = 0 
   RGEOMOD = 1 
   CGEOMOD = 2 
   CAPMOD = 0 
   LINT =  2e-10 m
   LL =      0 m^(LLN+1)
   LLN =      1 
   DLC =      0 m
   DLBIN =      0 
   LLC =      0 m^(LLN+1)
   EOT = 6.2e-10 m
   TOXP = 1.15e-09 m
   EOTBOX = 1.4e-07 m
   HFIN = 1.8e-08 m
   FECH =      1 
   DELTAW =      0 m
   FECHCV =      1 
   DELTAWCV =      0 m
   NBODY =  1e+22 m^-3
   NSD =  3e+26 m^-3
   PHIG =  4.424 eV
   EPSROX =    3.9 
   EPSRSUB =   11.9 
   EASUB =   4.05 eV
   NI0SUB = 1.1e+16 m^-3
   BG0SUB =   1.12 eV
   NC0SUB = 2.86e+25 m^-3
   NGATE =      0 m^-3
   CIT = 1.3e-05 F/m^2
   CDSC =  0.039 F/m^2
   CDSCD =  0.007 F/m^2
   CDSCDR =  0.007 
   DVT0 =   0.01 
   DVT1 =   0.69 
   PHIN =   0.05 V
   ETA0 = 0.6785 
   ETA0R = 0.6785 
   DSUB =    0.9 
   K1RSCE =      0 V^1/2
   LPE0 =  5e-09 m
   DVTSHIFT =      0 
   QMFACTOR =      0 
   QMTCENIV =      0 
   QMTCENCV =      0 
   AQMTCEN =      0 
   BQMTCEN = 1.2e-08 
   ETAQM =   0.54 
   QM0 = 0.001143 
   PQM =   0.66 
   QM0ACC =  0.001 
   PQMACC =   0.66 
   VSAT = 1.6e+05 
   AVSAT =      0 
   BVSAT =  1e-07 
   VSAT1 = 1.6e+05 
   AVSAT1 =      0 
   BVSAT1 =  1e-07 
   DELTAVSAT =      1 
   KSATIV =    0.8 
   MEXP =      3 
   AMEXP =      0 
   BMEXP =      1 
   PTWG =      0 
   APTWG =      0 
   BPTWG =  1e-07 
   AT = -0.00156 
   TMEXP =      0 
   PTWGT =  0.004 
   U0 =  0.065 
   ETAMOB =      2 
   UP =      0 
   LPA =      1 
   UA =    0.3 
   AUA =      0 
   BUA =  1e-07 
   EU =    1.8 
   AEU =      0 
   BEU =  1e-07 
   UD =      0 
   AUD =      0 
   BUD =  5e-08 
   UCS =      0 
   UTE =      0 
   UTL = -0.0015 
   UA1 = 0.001032 
   UD1 =      0 
   UCSTE = -0.00478 
   RDSWMIN =      0 
   RDSW =    100 
   ARDSW =      0 
   BRDSW =  1e-07 
   RSWMIN =      0 
   RSW =      0 
   ARSW =      0 
   BRSW =  1e-07 
   RDWMIN =      0 
   RDW =      0 
   ARDW =      0 
   BRDW =  1e-07 
   PRWG =      0 
   WR =      1 
   PRT =  0.001 
   PDIBL1 =    1.3 
   PDIBL2 = 0.0002 
   DROUT =   1.06 
   PVAG =      1 
   PCLM =    0.2 
   APCLM =      0 
   BPCLM =  1e-07 
   PCLMG =      0 
   VASAT =    0.6 
   PCLMCV =  0.013 
   PCLMGCV =      0 
   VASATCV =    0.2 
   RGEXT =      0 ohm
   RGFIN =  0.001 ohm
   RSHS =      0 ohm
   RSHD =      0 ohm
   HEPI =  8e-09 m
   TSILI =  7e-09 m
   RHOC =  4e-13 ohm/m^2
   RHORSD =      1 ohm/m
   RHOEXT =      1 ohm/m
   CRATIO =    0.5 
   DELTAPRSD =      0 m
   SDTERM = 0 
   LSP = 2.2e-09 m
   LDG =  2e-09 m
   EPSRSP =    3.9 
   TGATE = 7.5e-09 m
   TMASK =      0 m
   ASILIEND =      0 m^2
   ARSDEND =      0 m^2
   PRSDEND =      0 m
   NSDE =  9e+25 m^-3
   RGEOA =      1 
   RGEOB =      0 m^-1
   RGEOC =      0 m^-1
   RGEOD =      0 m^-1
   RGEOE =      0 m^-1
   CGEOA =      1 
   CGEOB =      0 m^-1
   CGEOC =      0 m^-1
   CGEOD =      0 m^-1
   CGEOE =      1 
   AIGBINV = 0.0111 (Fs^2/g)^0.5m^-1
   BIGBINV =   0.03 (Fs^2/g)^0.5m^-1
   CIGBINV =  0.006 V^-1
   EIGBINV =    1.1 V
   NIGBINV =    1.2 
   AIGBACC = 0.0149 
   BIGBACC = 0.000949 
   CIGBACC =  0.075 
   NIGBACC =      3 
   AIGC = 0.0136 (Fs^2/g)^0.5m^-1
   BIGC = 0.00171 (Fs^2/g)^0.5m^-1V^-1
   CIGC =  0.075 V^-1
   NIGC =      1 
   DLCIGS =      0 m
   AIGS = 0.0136 (Fs^2/g)^0.5m^-1
   BIGS = 0.00171 (Fs^2/g)^0.5m^-1V^-1
   CIGS =  0.075 V^-1
   DLCIGD =      0 m
   AIGD = 0.0136 (Fs^2/g)^0.5m^-1
   BIGD = 0.00171 (Fs^2/g)^0.5m^-1V^-1
   CIGD =  0.075 V^-1
   POXEDGE =      1 
   AGIDL = 5.729e-12 ohm^-1
   BGIDL =  3e+08 V/m
   EGIDL =    0.1 V
   AGISL = 5.729e-12 ohm^-1
   BGISL =  3e+08 V/m
   EGISL =    0.1 V
   ALPHA0 =      0 mV^-1
   ALPHA1 =      0 V^-1
   BETA0 =     30 V^-1
   ALPHAII =      0 
   BETAII0 =      0 V^-1
   BETAII1 =      0 
   BETAII2 =    0.1 V
   ESATII =  1e+07 V/m
   LII =  5e-10 V/m
   SII0 =    0.5 V^-1
   SII1 =    0.1 
   SII2 =      0 V
   SIID =      0 V
   EOTACC = 6.2e-10 m
   DELVFBACC =      0 V
   CFS = 2.56e-11 F/m
   CFD = 2.65e-11 F/m
   COVS = 2.5e-11 F/m
   COVD = 2.5e-11 F/m
   CGSO =      0 F/m
   CGDO =      0 F/m
   CGSL =      0 F/m
   CGDL =      0 F/m
   CKAPPAS =    0.6 V
   CKAPPAD =    0.6 V
   CGBO =      0 F/m
   CGBL =      0 F/m
   CKAPPAB =    0.6 V
   CSDESW =      0 F/m
   CJS = 0.0005 F/m^2
   CJD = 0.0005 F/m^2
   CJSWS =  5e-10 F/m
   CJSWD =  5e-10 F/m
   CJSWGS =      0 F/m
   CJSWGD =      0 F/m
   PBS =      1 V
   PBD =      1 V
   PBSWS =      1 V
   PBSWD =      1 V
   PBSWGS =      1 V
   PBSWGD =      1 V
   MJS, =    0.5 
   MJD =    0.5 
   MJSWS =   0.33 
   MJSWD =   0.33 
   MJSWGS =   0.33 
   MJSWGD =   0.33 
   SJS =      0 
   SJD =      0 
   SJSWS =      0 
   SJSWD =      0 
   SJSWGS =      0 
   SJSWGD =      0 
   MJS2 =  0.125 
   MJD2 =  0.125 
   MJSWS2 =   0.33 
   MJSWD2 =   0.33 
   MJSWGS2 =   0.33 
   MJSWGD2 =   0.33 
   JSS = 0.0001 A/m^2
   JSD = 0.0001 A/m^2
   JSWS =      0 A/m
   JSWD =      0 A/m
   JSWGS =      0 A/m
   JSWGD =      0 A/m
   NJS =      1 
   NJD =      1 
   IJTHSFWD =    0.1 A
   IJTHDFWD =    0.1 A
   IJTHSREV =    0.1 A
   IJTHDREV =    0.1 A
   BVS =     10 V
   BVD =     10 V
   XJBVS =      1 
   XJBVD =      1 
   JTSS =      0 A/m^2
   JTSD =      0 A/m^2
   JTSSWS =      0 A/m
   JTSSWD =      0 A/m
   JTSSWGS =      0 A/m
   JTSSWGD =      0 A/m
   JTWEFF =      0 m
   NJTS =     20 
   NJTSD =     20 
   NJTSSW =     20 
   NJTSSWD =     20 
   NJTSSWG =     20 
   NJTSSWGD =     20 
   VTSS =     10 V
   VTSD =     10 V
   VTSSWS =     10 V
   VTSSWD =     10 V
   VTSSWGS =     10 V
   VTSSWGD =     10 V
   LINTIGEN =      0 m
   NTGEN =      1 
   AIGEN =      0 m^-3V^-1
   BIGEN =      0 m^-3V^-3
   XRCRG1 =     12 
   XRCRG2 =      1 
   NSEG = 5 
   EF =      1 
   EM = 4.1e+07 V/m
   NOIA = 6.25e+39 eV^-1s^1-EFm^-3
   NOIB = 3.125e+24 eV^-1s^1-EFm^-1
   NOIC = 8.75e+07 eV^-1s^1-EFm
   NTNOI =      1 
   TNOM =  300.1 K
   TBGASUB = 0.000702 eV/K
   TBGBSUB =   1108 K
   KT1 =      0 V
   KT1L =      0 Vm
   IIT =   -0.5 
   TII =      0 
   TGIDL = -0.0003 K^-1
   IGT =    2.5 
   TCJ =      0 K^-1
   TCJSW =      0 K^-1
   TCJSWG =      0 K^-1
   TPB =      0 K^-1
   TPBSW =      0 K^-1
   TPBSWG =      0 K^-1
   XTIS =      3 
   XTID =      3 
   XTSS =   0.02 
   XTSD =   0.02 
   XTSSWS =   0.02 
   XTSSWD =   0.02 
   XTSSWGS =   0.02 
   XTSSWGD =   0.02 
   TNJTS =      0 
   TNJTSD =      0 
   TNJTSSW =      0 
   TNJTSSWD =      0 
   TNJTSSWG =      0 
   TNJTSSWGD =      0 
   RTH0 =   0.01 ohm
   CTH0 =  1e-05 F
   WTH0 =      0 m
   LNBODY =      0 
   NNBODY =      0 
   PNBODY =      0 
   LPHIG =      0 
   NPHIG =      0 
   PPHIG =      0 
   LNGATE =      0 
   NNGATE =      0 
   PNGATE =      0 
   LCIT =      0 
   NCIT =      0 
   PCIT =      0 
   LCDSC =      0 
   NCDSC =      0 
   PCDSC =      0 
   LCDSCD =      0 
   NCDSCD =      0 
   PCDSCD =      0 
   LCDSCDR =      0 
   NCDSCDR =      0 
   PCDSCDR =      0 
   LDVT0 =      0 
   NDVT0 =      0 
   PDVT0 =      0 
   LDVT1 =      0 
   NDVT1 =      0 
   PDVT1 =      0 
   LPHIN =      0 
   NPHIN =      0 
   PPHIN =      0 
   LETA0 =      0 
   NETA0 =      0 
   PETA0 =      0 
   LETA0R =      0 
   NETA0R =      0 
   PETA0R =      0 
   LDSUB =      0 
   NDSUB =      0 
   PDSUB =      0 
   LK1RSCE =      0 
   NK1RSCE =      0 
   PK1RSCE =      0 
   LLPE0 =      0 
   NLPE0 =      0 
   PLPE0 =      0 
   LQMFACTOR =      0 
   NQMFACTOR =      0 
   PQMFACTOR =      0 
   LQMTCENIV =      0 
   NQMTCENIV =      0 
   PQMTCENIV =      0 
   LQMTCENCV =      0 
   NQMTCENCV =      0 
   PQMTCENCV =      0 
   LVSAT =      0 
   NVSAT =      0 
   PVSAT =      0 
   LKSATIV =      0 
   NKSATIV =      0 
   PKSATIV =      0 
   LMEXP =      0 
   NMEXP =      0 
   PMEXP =      0 
   LPTWG =      0 
   NPTWG =      0 
   PPTWG =      0 
   LTHETASAT =      0 
   NTHETASAT =      0 
   PTHETASAT =      0 
   LU0 =      0 
   NU0 =      0 
   PU0 =      0 
   LUP =      0 
   NUP =      0 
   PUP =      0 
   LUA =      0 
   NUA =      0 
   PUA =      0 
   LEU =      0 
   NEU =      0 
   PEU =      0 
   LUD =      0 
   NUD =      0 
   PUD =      0 
   LUCS =      0 
   NUCS =      0 
   PUCS =      0 
   LPCLM =      0 
   NPCLM =      0 
   PPCLM =      0 
   LPCLMCV =      0 
   NPCLMCV =      0 
   PPCLMCV =      0 
   LRDSW =      0 
   NRDSW =      0 
   PRDSW =      0 
   LRSW =      0 
   NRSW =      0 
   PRSW =      0 
   LRDW =      0 
   NRDW =      0 
   PRDW =      0 
   LPRWG =      0 
   NPRWG =      0 
   PPRWG =      0 
   LWR =      0 
   NWR =      0 
   PWR =      0 
   LPDIBL1 =      0 
   NPDIBL1 =      0 
   PPDIBL1 =      0 
   LPDIBL2 =      0 
   NPDIBL2 =      0 
   PPDIBL2 =      0 
   LDROUT =      0 
   NDROUT =      0 
   PDROUT =      0 
   LPVAG =      0 
   NPVAG =      0 
   PPVAG =      0 
   LAIGBINV =      0 
   NAIGBINV =      0 
   PAIGBINV =      0 
   LBIGBINV =      0 
   NBIGBINV =      0 
   PBIGBINV =      0 
   LCIGBINV =      0 
   NCIGBINV =      0 
   PCIGBINV =      0 
   LEIGBINV =      0 
   NEIGBINV =      0 
   PEIGBINV =      0 
   LNIGBINV =      0 
   NNIGBINV =      0 
   PNIGBINV =      0 
   LAIGC =      0 
   NAIGC =      0 
   PAIGC =      0 
   LBIGC =      0 
   NBIGC =      0 
   PBIGC =      0 
   LCIGC =      0 
   NCIGC =      0 
   PCIGC =      0 
   LNIGC =      0 
   NNIGC =      0 
   PNIGC =      0 
   LAIGS =      0 
   NAIGS =      0 
   PAIGS =      0 
   LBIGS =      0 
   NBIGS =      0 
   PBIGS =      0 
   LCIGS =      0 
   NCIGS =      0 
   PCIGS =      0 
   LAIGD =      0 
   NAIGD =      0 
   PAIGD =      0 
   LBIGD =      0 
   NBIGD =      0 
   PBIGD =      0 
   LCIGD =      0 
   NCIGD =      0 
   PCIGD =      0 
   LPOXEDGE =      0 
   NPOXEDGE =      0 
   PPOXEDGE =      0 
   LAGIDL =      0 
   NAGIDL =      0 
   PAGIDL =      0 
   LBGIDL =      0 
   NBGIDL =      0 
   PBGIDL =      0 
   LEGIDL =      0 
   NEGIDL =      0 
   PEGIDL =      0 
   LAGISL =      0 
   NAGISL =      0 
   PAGISL =      0 
   LBGISL =      0 
   NBGISL =      0 
   PBGISL =      0 
   LEGISL =      0 
   NEGISL =      0 
   PEGISL =      0 
   LALPHA0 =      0 
   NALPHA0 =      0 
   PALPHA0 =      0 
   LALPHA1 =      0 
   NALPHA1 =      0 
   PALPHA1 =      0 
   LBETA0 =      0 
   NBETA0 =      0 
   PBETA0 =      0 
   LALPHAII =      0 
   NALPHAII =      0 
   PALPHAII =      0 
   LBETAII0 =      0 
   NBETAII0 =      0 
   PBETAII0 =      0 
   LBETAII1 =      0 
   NBETAII1 =      0 
   PBETAII1 =      0 
   LBETAII2 =      0 
   NBETAII2 =      0 
   PBETAII2 =      0 
   LESATII =      0 
   NESATII =      0 
   PESATII =      0 
   LLII =      0 
   NLII =      0 
   PLII =      0 
   LSII0 =      0 
   NSII0 =      0 
   PSII0 =      0 
   LSII1 =      0 
   NSII1 =      0 
   PSII1 =      0 
   LSII2 =      0 
   NSII2 =      0 
   PSII2 =      0 
   LSIID =      0 
   NSIID =      0 
   PSIID =      0 
   LCFS =      0 
   NCFS =      0 
   PCFS =      0 
   LCFD =      0 
   NCFD =      0 
   PCFD =      0 
   LCOVS =      0 
   NCOVS =      0 
   PCOVS =      0 
   LCOVD =      0 
   NCOVD =      0 
   PCOVD =      0 
   LCGSL =      0 
   NCGSL =      0 
   PCGSL =      0 
   LCGDL =      0 
   NCGDL =      0 
   PCGDL =      0 
   LCKAPPAS =      0 
   NCKAPPAS =      0 
   PCKAPPAS =      0 
   LCKAPPAD =      0 
   NCKAPPAD =      0 
   PCKAPPAD =      0 
   LCGBL =      0 
   NCGBL =      0 
   PCGBL =      0 
   LCKAPPAB =      0 
   NCKAPPAB =      0 
   PCKAPPAB =      0 
   LNTGEN =      0 
   NNTGEN =      0 
   PNTGEN =      0 
   LAIGEN =      0 
   NAIGEN =      0 
   PAIGEN =      0 
   LBIGEN =      0 
   NBIGEN =      0 
   PBIGEN =      0 
   LXRCRG1 =      0 
   NXRCRG1 =      0 
   PXRCRG1 =      0 
   LXRCRG2 =      0 
   NXRCRG2 =      0 
   PXRCRG2 =      0 
   LINTNOI =      0 
   NINTNOI =      0 
   PINTNOI =      0 
   LUTE =      0 
   NUTE =      0 
   PUTE =      0 
   LUTL =      0 
   NUTL =      0 
   PUTL =      0 
   LUA1 =      0 
   NUA1 =      0 
   PUA1 =      0 
   LUD1 =      0 
   NUD1 =      0 
   PUD1 =      0 
   LUCSTE =      0 
   NUCSTE =      0 
   PUCSTE =      0 
   LPTWGT =      0 
   NPTWGT =      0 
   PPTWGT =      0 
   LAT =      0 
   NAT =      0 
   PAT =      0 
   LSTTHETASAT =      0 
   NSTTHETASAT =      0 
   PSTTHETASAT =      0 
   LPRT =      0 
   NPRT =      0 
   PPRT =      0 
   LIIT =      0 
   NIIT =      0 
   PIIT =      0 
   LTII =      0 
   NTII =      0 
   PTII =      0 
   LTGIDL =      0 
   NTGIDL =      0 
   PTGIDL =      0 
   LIGT =      0 
   NIGT =      0 
   PIGT =      0 
   L = 1.1e-08 m
   D =  4e-08 m
   TFIN = 6.5e-09 m
   FPITCH = 2.2e-08 m
   NF = 1 
   NFIN = 1 
   NGCON = 1 
   ASEO =      0 m^2
   ADEO =      0 m^2
   PSEO =      0 m
   PDEO =      0 m
   ASEJ =      0 m^2
   ADEJ =      0 m^2
   PSEJ =      0 m
   PDEJ =      0 m
   CGSP =      0 F
   CGDP =      0 F
   CDSP =      0 F
   NRS =      0 
   NRD =      0 
   LRSD = 1.1e-08 m
   XL =      0 m
   DELVTRAND =      0 
   U0MULT =      1 
   IDS0MULT =      1 
   Lmin =  1e-08 m
   Lmax =  3e-08 m
   NFINmin = 0 
   NFINmax = 1 
   LVSAT1 =      0 
   NVSAT1 =      0 
   PVSAT1 =      0 
   LETAMOB =      0 
   NETAMOB =      0 
   PETAMOB =      0 
   LPCLMG =      0 
   NPCLMG =      0 
   PPCLMG =      0 
   LVASAT =      0 
   NVASAT =      0 
   PVASAT =      0 
   LAIGBACC =      0 
   NAIGBACC =      0 
   PAIGBACC =      0 
   LBIGBACC =      0 
   NBIGBACC =      0 
   PBIGBACC =      0 
   LCIGBACC =      0 
   NCIGBACC =      0 
   PCIGBACC =      0 
   LNIGBACC =      0 
   NNIGBACC =      0 
   PNIGBACC =      0 
  **info** (ptm7hp.sp:16) DC voltage reset to initial transient source value              in source        0:vin_0               new dc=  0.7000D+00
  
      
 **info** set option symb=1 internally to help for convergence.
 *****************************************************************
 ******  option summary
 ******
 runlvl  = 3         bypass  = 2         
  Opening plot unit= 15
 file=ptm7hp.pa0                                                               

1****** HSPICE -- F-2011.09-SP2 64-BIT (Feb 27 2012) linux ******               
 ******  
 $ netlist of inverter

  ******  operating point information tnom=  25.000 temp=  25.000 *****
 ***** operating point status is voltage   simulation time is   0.000e+00
      node    =voltage        node    =voltage        node    =voltage

 +  0:outb_00 = 6.999e-01   0:outb_000= 4.376e-05   0:outb_000= 7.000e-01
 +  0:outb_000= 7.000e-01   0:outb_000= 7.000e-01   0:outb_000= 7.000e-01
 +  0:outb_001= 4.376e-05   0:outb_001= 7.000e-01   0:outb_001= 7.000e-01
 +  0:outb_001= 7.000e-01   0:outb_001= 7.000e-01   0:outb_002= 4.376e-05
 +  0:outb_002= 7.000e-01   0:outb_002= 7.000e-01   0:outb_002= 7.000e-01
 +  0:outb_002= 7.000e-01   0:outb_003= 4.376e-05   0:outb_003= 7.000e-01
 +  0:outb_003= 7.000e-01   0:outb_003= 7.000e-01   0:outb_003= 7.000e-01
 +  0:outb_01 = 6.999e-01   0:outb_010= 4.376e-05   0:outb_010= 7.000e-01
 +  0:outb_010= 7.000e-01   0:outb_010= 7.000e-01   0:outb_010= 7.000e-01
 +  0:outb_011= 4.376e-05   0:outb_011= 7.000e-01   0:outb_011= 7.000e-01
 +  0:outb_011= 7.000e-01   0:outb_011= 7.000e-01   0:outb_012= 4.376e-05
 +  0:outb_012= 7.000e-01   0:outb_012= 7.000e-01   0:outb_012= 7.000e-01
 +  0:outb_012= 7.000e-01   0:outb_013= 4.376e-05   0:outb_013= 7.000e-01
 +  0:outb_013= 7.000e-01   0:outb_013= 7.000e-01   0:outb_013= 7.000e-01
 +  0:outb_02 = 6.999e-01   0:outb_020= 4.376e-05   0:outb_020= 7.000e-01
 +  0:outb_020= 7.000e-01   0:outb_020= 7.000e-01   0:outb_020= 7.000e-01
 +  0:outb_021= 4.376e-05   0:outb_021= 7.000e-01   0:outb_021= 7.000e-01
 +  0:outb_021= 7.000e-01   0:outb_021= 7.000e-01   0:outb_022= 4.376e-05
 +  0:outb_022= 7.000e-01   0:outb_022= 7.000e-01   0:outb_022= 7.000e-01
 +  0:outb_022= 7.000e-01   0:outb_023= 4.376e-05   0:outb_023= 7.000e-01
 +  0:outb_023= 7.000e-01   0:outb_023= 7.000e-01   0:outb_023= 7.000e-01
 +  0:outb_03 = 6.999e-01   0:outb_030= 4.376e-05   0:outb_030= 7.000e-01
 +  0:outb_030= 7.000e-01   0:outb_030= 7.000e-01   0:outb_030= 7.000e-01
 +  0:outb_031= 4.376e-05   0:outb_031= 7.000e-01   0:outb_031= 7.000e-01
 +  0:outb_031= 7.000e-01   0:outb_031= 7.000e-01   0:outb_032= 4.376e-05
 +  0:outb_032= 7.000e-01   0:outb_032= 7.000e-01   0:outb_032= 7.000e-01
 +  0:outb_032= 7.000e-01   0:outb_033= 4.376e-05   0:outb_033= 7.000e-01
 +  0:outb_033= 7.000e-01   0:outb_033= 7.000e-01   0:outb_033= 7.000e-01
 +  0:outin_00= 7.000e-01   0:outin_10= 4.370e-05   0:vdd     = 7.000e-01

 ******  
 $ netlist of inverter

  ******  transient analysis tnom=  25.000 temp=  25.000 *****
 model_uut_peak_power00= 2.5222e-05    at= 5.0830e-10
             from= 0.0000e+00    to= 1.0000e-09
 model_uut_avg_power012= 2.4552e-07  from= 0.0000e+00     to= 1.0000e-09
 uut_peak_power= 5.2499e-05    at= 5.0206e-10
             from= 0.0000e+00    to= 1.0000e-09
 uut_avg_power= 1.9075e-07  from= 0.0000e+00     to= 1.0000e-09
 source_peak_power= 9.8200e-04    at= 5.0964e-10
             from= 0.0000e+00    to= 1.0000e-09
 source_avg_power= 8.8775e-06  from= 0.0000e+00     to= 1.0000e-09
 trf_delay= 3.1197e-12  targ= 5.0964e-10   trig= 5.0652e-10
 tfr_delay= 3.4888e-12  targ= 8.6395e-12   trig= 5.1508e-12
x

        time    voltage      voltage    
                 outin_00     outin_10  
  0.0000e+00    7.000e-01    4.370e-05  
  1.0000e-12    0.000e+00    1.270e-01  
  2.0000e-12    0.000e+00    3.223e-01  
  3.0000e-12    0.000e+00    4.674e-01  
  4.0000e-12    0.000e+00    5.692e-01  
  5.0000e-12    0.000e+00    6.064e-01  
  6.0000e-12    0.000e+00    6.208e-01  
  7.0000e-12    0.000e+00    6.359e-01  
  8.0000e-12    0.000e+00    6.530e-01  
  9.0000e-12    0.000e+00    6.704e-01  
  1.0000e-11    0.000e+00    6.811e-01  
  1.1000e-11    0.000e+00    6.939e-01  
  1.2000e-11    0.000e+00    6.980e-01  
  1.3000e-11    0.000e+00    6.949e-01  
  1.4000e-11    0.000e+00    6.943e-01  
  1.5000e-11    0.000e+00    6.947e-01  
  1.6000e-11    0.000e+00    6.961e-01  
  1.7000e-11    0.000e+00    6.975e-01  
  1.8000e-11    0.000e+00    6.982e-01  
  1.9000e-11    0.000e+00    6.989e-01  
  2.0000e-11    0.000e+00    6.993e-01  
  2.1000e-11    0.000e+00    6.998e-01  
  2.2000e-11    0.000e+00    6.999e-01  
  2.3000e-11    0.000e+00    6.999e-01  
  2.4000e-11    0.000e+00    6.999e-01  
  2.5000e-11    0.000e+00    6.998e-01  
  2.6000e-11    0.000e+00    6.999e-01  
  2.7000e-11    0.000e+00    6.999e-01  
  2.8000e-11    0.000e+00    7.000e-01  
  2.9000e-11    0.000e+00    7.000e-01  
  3.0000e-11    0.000e+00    7.001e-01  
  3.1000e-11    0.000e+00    7.000e-01  
  3.2000e-11    0.000e+00    7.000e-01  
  3.3000e-11    0.000e+00    7.000e-01  
  3.4000e-11    0.000e+00    6.999e-01  
[...]
  5.6100e-10    7.000e-01    9.359e-05  
  5.6200e-10    7.000e-01    8.464e-05  
  5.6300e-10    7.000e-01    7.570e-05  
  5.6400e-10    7.000e-01    6.675e-05  
  5.6500e-10    7.000e-01    5.780e-05  
  5.6600e-10    7.000e-01    4.886e-05  
  5.6700e-10    7.000e-01    3.991e-05  
  5.6800e-10    7.000e-01    3.097e-05  
  5.6900e-10    7.000e-01    2.202e-05  
  5.7000e-10    7.000e-01    1.307e-05  
  5.7100e-10    7.000e-01    4.128e-06  
  5.7200e-10    7.000e-01   -4.818e-06  
  5.7300e-10    7.000e-01   -1.376e-05  
  5.7400e-10    7.000e-01   -2.271e-05  
  5.7500e-10    7.000e-01   -3.166e-05  
  5.7600e-10    7.000e-01   -2.512e-05  
  5.7700e-10    7.000e-01   -1.811e-05  
  5.7800e-10    7.000e-01   -1.110e-05  
  5.7900e-10    7.000e-01   -4.096e-06  
  5.8000e-10    7.000e-01    2.910e-06  
  5.8100e-10    7.000e-01    9.917e-06  
  5.8200e-10    7.000e-01    1.692e-05  
  5.8300e-10    7.000e-01    2.393e-05  
  5.8400e-10    7.000e-01    3.094e-05  
  5.8500e-10    7.000e-01    3.794e-05  
  5.8600e-10    7.000e-01    4.495e-05  
  5.8700e-10    7.000e-01    5.195e-05  
  5.8800e-10    7.000e-01    5.896e-05  
  5.8900e-10    7.000e-01    6.597e-05  
  5.9000e-10    7.000e-01    7.297e-05  
  5.9100e-10    7.000e-01    7.998e-05  
  5.9200e-10    7.000e-01    8.699e-05  
  5.9300e-10    7.000e-01    9.399e-05  
  5.9400e-10    7.000e-01    1.010e-04  
  5.9500e-10    7.000e-01    1.080e-04  
  5.9600e-10    7.000e-01    1.150e-04  
  5.9700e-10    7.000e-01    1.158e-04  
  5.9800e-10    7.000e-01    1.101e-04  
  5.9900e-10    7.000e-01    1.045e-04  
  6.0000e-10    7.000e-01    9.885e-05  
  6.0100e-10    7.000e-01    9.320e-05  
  6.0200e-10    7.000e-01    8.756e-05  
  6.0300e-10    7.000e-01    8.191e-05  
  6.0400e-10    7.000e-01    7.626e-05  
  6.0500e-10    7.000e-01    7.061e-05  
  6.0600e-10    7.000e-01    6.496e-05  
  6.0700e-10    7.000e-01    5.931e-05  
  6.0800e-10    7.000e-01    5.366e-05  
  6.0900e-10    7.000e-01    4.802e-05  
  6.1000e-10    7.000e-01    4.237e-05  
  6.1100e-10    7.000e-01    3.672e-05  
  6.1200e-10    7.000e-01    3.107e-05  
  6.1300e-10    7.000e-01    2.542e-05  
  6.1400e-10    7.000e-01    1.977e-05  
  6.1500e-10    7.000e-01    1.412e-05  
  6.1600e-10    7.000e-01    8.476e-06  
  6.1700e-10    7.000e-01    2.828e-06  
  6.1800e-10    7.000e-01   -2.821e-06  
  6.1900e-10    7.000e-01   -8.469e-06  
  6.2000e-10    7.000e-01   -1.412e-05  
  6.2100e-10    7.000e-01   -1.977e-05  
  6.2200e-10    7.000e-01   -2.542e-05  
  6.2300e-10    7.000e-01   -3.018e-05  
  6.2400e-10    7.000e-01   -2.555e-05  
  6.2500e-10    7.000e-01   -2.092e-05  
  6.2600e-10    7.000e-01   -1.629e-05  
  6.2700e-10    7.000e-01   -1.166e-05  
  6.2800e-10    7.000e-01   -7.035e-06  
  6.2900e-10    7.000e-01   -2.406e-06  
  6.3000e-10    7.000e-01    2.224e-06  
  6.3100e-10    7.000e-01    6.853e-06  
  6.3200e-10    7.000e-01    1.148e-05  
  6.3300e-10    7.000e-01    1.611e-05  
  6.3400e-10    7.000e-01    2.074e-05  
  6.3500e-10    7.000e-01    2.537e-05  
  6.3600e-10    7.000e-01    3.000e-05  
  6.3700e-10    7.000e-01    3.463e-05  
  6.3800e-10    7.000e-01    3.926e-05  
  6.3900e-10    7.000e-01    4.346e-05  
  6.4000e-10    7.000e-01    4.348e-05  
  6.4100e-10    7.000e-01    4.350e-05  
  6.4200e-10    7.000e-01    4.353e-05  
  6.4300e-10    7.000e-01    4.355e-05  
  6.4400e-10    7.000e-01    4.357e-05  
  6.4500e-10    7.000e-01    4.359e-05  
  6.4600e-10    7.000e-01    4.362e-05  
  6.4700e-10    7.000e-01    4.364e-05  
  6.4800e-10    7.000e-01    4.366e-05  
  6.4900e-10    7.000e-01    4.369e-05  
  6.5000e-10    7.000e-01    4.371e-05  
  6.5100e-10    7.000e-01    4.373e-05  
  6.5200e-10    7.000e-01    4.375e-05  
  6.5300e-10    7.000e-01    4.378e-05  
  6.5400e-10    7.000e-01    4.380e-05  
  6.5500e-10    7.000e-01    4.382e-05  
  6.5600e-10    7.000e-01    4.384e-05  
  6.5700e-10    7.000e-01    4.387e-05  
  6.5800e-10    7.000e-01    4.389e-05  
  6.5900e-10    7.000e-01    4.391e-05  
  6.6000e-10    7.000e-01    4.393e-05  
  6.6100e-10    7.000e-01    4.392e-05  
  6.6200e-10    7.000e-01    4.390e-05  
  6.6300e-10    7.000e-01    4.389e-05  
  6.6400e-10    7.000e-01    4.388e-05  
  6.6500e-10    7.000e-01    4.387e-05  
  6.6600e-10    7.000e-01    4.386e-05  
  6.6700e-10    7.000e-01    4.385e-05  
  6.6800e-10    7.000e-01    4.384e-05  
  6.6900e-10    7.000e-01    4.382e-05  
  6.7000e-10    7.000e-01    4.381e-05  
  6.7100e-10    7.000e-01    4.380e-05  
  6.7200e-10    7.000e-01    4.379e-05  
  6.7300e-10    7.000e-01    4.378e-05  
  6.7400e-10    7.000e-01    4.377e-05  
  6.7500e-10    7.000e-01    4.376e-05  
  6.7600e-10    7.000e-01    4.374e-05  
  6.7700e-10    7.000e-01    4.373e-05  
  6.7800e-10    7.000e-01    4.372e-05  
  6.7900e-10    7.000e-01    4.371e-05  
  6.8000e-10    7.000e-01    4.370e-05  
  6.8100e-10    7.000e-01    4.369e-05  
  6.8200e-10    7.000e-01    4.368e-05  
  6.8300e-10    7.000e-01    4.366e-05  
  6.8400e-10    7.000e-01    4.365e-05  
  6.8500e-10    7.000e-01    4.364e-05  
  6.8600e-10    7.000e-01    4.363e-05  
  6.8700e-10    7.000e-01    4.362e-05  
  6.8800e-10    7.000e-01    4.361e-05  
  6.8900e-10    7.000e-01    4.360e-05  
  6.9000e-10    7.000e-01    4.358e-05  
  6.9100e-10    7.000e-01    4.357e-05  
  6.9200e-10    7.000e-01    4.356e-05  
  6.9300e-10    7.000e-01    4.355e-05  
  6.9400e-10    7.000e-01    4.354e-05  
  6.9500e-10    7.000e-01    4.353e-05  
  6.9600e-10    7.000e-01    4.352e-05  
  6.9700e-10    7.000e-01    4.350e-05  
  6.9800e-10    7.000e-01    4.349e-05  
  6.9900e-10    7.000e-01    4.348e-05  
  7.0000e-10    7.000e-01    4.347e-05  
  7.0100e-10    7.000e-01    4.346e-05  
  7.0200e-10    7.000e-01    4.347e-05  
  7.0300e-10    7.000e-01    4.348e-05  
  7.0400e-10    7.000e-01    4.349e-05  
  7.0500e-10    7.000e-01    4.350e-05  
  7.0600e-10    7.000e-01    4.351e-05  
  7.0700e-10    7.000e-01    4.352e-05  
  7.0800e-10    7.000e-01    4.353e-05  
  7.0900e-10    7.000e-01    4.354e-05  
  7.1000e-10    7.000e-01    4.355e-05  
  7.1100e-10    7.000e-01    4.356e-05  
  7.1200e-10    7.000e-01    4.356e-05  
  7.1300e-10    7.000e-01    4.357e-05  
  7.1400e-10    7.000e-01    4.358e-05  
  7.1500e-10    7.000e-01    4.359e-05  
  7.1600e-10    7.000e-01    4.360e-05  
  7.1700e-10    7.000e-01    4.361e-05  
  7.1800e-10    7.000e-01    4.362e-05  
  7.1900e-10    7.000e-01    4.363e-05  
  7.2000e-10    7.000e-01    4.364e-05  
  7.2100e-10    7.000e-01    4.365e-05  
  7.2200e-10    7.000e-01    4.366e-05  
  7.2300e-10    7.000e-01    4.367e-05  
  7.2400e-10    7.000e-01    4.368e-05  
  7.2500e-10    7.000e-01    4.369e-05  
  7.2600e-10    7.000e-01    4.370e-05  
  7.2700e-10    7.000e-01    4.370e-05  
  7.2800e-10    7.000e-01    4.371e-05  
  7.2900e-10    7.000e-01    4.372e-05  
  7.3000e-10    7.000e-01    4.373e-05  
  7.3100e-10    7.000e-01    4.374e-05  
  7.3200e-10    7.000e-01    4.375e-05  
  7.3300e-10    7.000e-01    4.376e-05  
  7.3400e-10    7.000e-01    4.377e-05  
  7.3500e-10    7.000e-01    4.378e-05  
  7.3600e-10    7.000e-01    4.379e-05  
  7.3700e-10    7.000e-01    4.380e-05  
  7.3800e-10    7.000e-01    4.381e-05  
  7.3900e-10    7.000e-01    4.382e-05  
  7.4000e-10    7.000e-01    4.383e-05  
  7.4100e-10    7.000e-01    4.384e-05  
  7.4200e-10    7.000e-01    4.384e-05  
  7.4300e-10    7.000e-01    4.385e-05  
  7.4400e-10    7.000e-01    4.386e-05  
  7.4500e-10    7.000e-01    4.387e-05  
  7.4600e-10    7.000e-01    4.388e-05  
  7.4700e-10    7.000e-01    4.389e-05  
  7.4800e-10    7.000e-01    4.390e-05  
  7.4900e-10    7.000e-01    4.391e-05  
  7.5000e-10    7.000e-01    4.392e-05  
  7.5100e-10    7.000e-01    4.392e-05  
  7.5200e-10    7.000e-01    4.392e-05  
  7.5300e-10    7.000e-01    4.391e-05  
  7.5400e-10    7.000e-01    4.390e-05  
  7.5500e-10    7.000e-01    4.389e-05  
  7.5600e-10    7.000e-01    4.388e-05  
  7.5700e-10    7.000e-01    4.387e-05  
  7.5800e-10    7.000e-01    4.386e-05  
  7.5900e-10    7.000e-01    4.385e-05  
  7.6000e-10    7.000e-01    4.384e-05  
  7.6100e-10    7.000e-01    4.383e-05  
  7.6200e-10    7.000e-01    4.382e-05  
  7.6300e-10    7.000e-01    4.381e-05  
  7.6400e-10    7.000e-01    4.380e-05  
  7.6500e-10    7.000e-01    4.380e-05  
  7.6600e-10    7.000e-01    4.379e-05  
  7.6700e-10    7.000e-01    4.378e-05  
  7.6800e-10    7.000e-01    4.377e-05  
  7.6900e-10    7.000e-01    4.376e-05  
  7.7000e-10    7.000e-01    4.375e-05  
  7.7100e-10    7.000e-01    4.374e-05  
  7.7200e-10    7.000e-01    4.373e-05  
  7.7300e-10    7.000e-01    4.372e-05  
  7.7400e-10    7.000e-01    4.371e-05  
  7.7500e-10    7.000e-01    4.370e-05  
  7.7600e-10    7.000e-01    4.369e-05  
  7.7700e-10    7.000e-01    4.368e-05  
  7.7800e-10    7.000e-01    4.367e-05  
  7.7900e-10    7.000e-01    4.367e-05  
  7.8000e-10    7.000e-01    4.366e-05  
  7.8100e-10    7.000e-01    4.365e-05  
  7.8200e-10    7.000e-01    4.364e-05  
  7.8300e-10    7.000e-01    4.363e-05  
  7.8400e-10    7.000e-01    4.362e-05  
  7.8500e-10    7.000e-01    4.361e-05  
  7.8600e-10    7.000e-01    4.360e-05  
  7.8700e-10    7.000e-01    4.359e-05  
  7.8800e-10    7.000e-01    4.358e-05  
  7.8900e-10    7.000e-01    4.357e-05  
  7.9000e-10    7.000e-01    4.356e-05  
  7.9100e-10    7.000e-01    4.355e-05  
  7.9200e-10    7.000e-01    4.355e-05  
  7.9300e-10    7.000e-01    4.354e-05  
  7.9400e-10    7.000e-01    4.353e-05  
  7.9500e-10    7.000e-01    4.352e-05  
  7.9600e-10    7.000e-01    4.351e-05  
  7.9700e-10    7.000e-01    4.350e-05  
  7.9800e-10    7.000e-01    4.349e-05  
  7.9900e-10    7.000e-01    4.348e-05  
  8.0000e-10    7.000e-01    4.347e-05  
  8.0100e-10    7.000e-01    4.347e-05  
  8.0200e-10    7.000e-01    4.347e-05  
  8.0300e-10    7.000e-01    4.348e-05  
  8.0400e-10    7.000e-01    4.349e-05  
  8.0500e-10    7.000e-01    4.350e-05  
  8.0600e-10    7.000e-01    4.351e-05  
  8.0700e-10    7.000e-01    4.352e-05  
  8.0800e-10    7.000e-01    4.353e-05  
  8.0900e-10    7.000e-01    4.354e-05  
  8.1000e-10    7.000e-01    4.355e-05  
  8.1100e-10    7.000e-01    4.356e-05  
  8.1200e-10    7.000e-01    4.357e-05  
  8.1300e-10    7.000e-01    4.358e-05  
  8.1400e-10    7.000e-01    4.358e-05  
  8.1500e-10    7.000e-01    4.359e-05  
  8.1600e-10    7.000e-01    4.360e-05  
  8.1700e-10    7.000e-01    4.361e-05  
  8.1800e-10    7.000e-01    4.362e-05  
  8.1900e-10    7.000e-01    4.363e-05  
  8.2000e-10    7.000e-01    4.364e-05  
  8.2100e-10    7.000e-01    4.365e-05  
  8.2200e-10    7.000e-01    4.366e-05  
  8.2300e-10    7.000e-01    4.367e-05  
  8.2400e-10    7.000e-01    4.368e-05  
  8.2500e-10    7.000e-01    4.369e-05  
  8.2600e-10    7.000e-01    4.370e-05  
  8.2700e-10    7.000e-01    4.370e-05  
  8.2800e-10    7.000e-01    4.371e-05  
  8.2900e-10    7.000e-01    4.372e-05  
  8.3000e-10    7.000e-01    4.373e-05  
  8.3100e-10    7.000e-01    4.374e-05  
  8.3200e-10    7.000e-01    4.375e-05  
  8.3300e-10    7.000e-01    4.376e-05  
  8.3400e-10    7.000e-01    4.377e-05  
  8.3500e-10    7.000e-01    4.378e-05  
  8.3600e-10    7.000e-01    4.379e-05  
  8.3700e-10    7.000e-01    4.380e-05  
  8.3800e-10    7.000e-01    4.381e-05  
  8.3900e-10    7.000e-01    4.382e-05  
  8.4000e-10    7.000e-01    4.382e-05  
  8.4100e-10    7.000e-01    4.383e-05  
  8.4200e-10    7.000e-01    4.384e-05  
  8.4300e-10    7.000e-01    4.385e-05  
  8.4400e-10    7.000e-01    4.386e-05  
  8.4500e-10    7.000e-01    4.387e-05  
  8.4600e-10    7.000e-01    4.388e-05  
  8.4700e-10    7.000e-01    4.389e-05  
  8.4800e-10    7.000e-01    4.390e-05  
  8.4900e-10    7.000e-01    4.391e-05  
  8.5000e-10    7.000e-01    4.392e-05  
  8.5100e-10    7.000e-01    4.392e-05  
  8.5200e-10    7.000e-01    4.391e-05  
  8.5300e-10    7.000e-01    4.390e-05  
  8.5400e-10    7.000e-01    4.389e-05  
  8.5500e-10    7.000e-01    4.389e-05  
  8.5600e-10    7.000e-01    4.388e-05  
  8.5700e-10    7.000e-01    4.387e-05  
  8.5800e-10    7.000e-01    4.386e-05  
  8.5900e-10    7.000e-01    4.385e-05  
  8.6000e-10    7.000e-01    4.384e-05  
  8.6100e-10    7.000e-01    4.383e-05  
  8.6200e-10    7.000e-01    4.382e-05  
  8.6300e-10    7.000e-01    4.381e-05  
  8.6400e-10    7.000e-01    4.380e-05  
  8.6500e-10    7.000e-01    4.379e-05  
  8.6600e-10    7.000e-01    4.378e-05  
  8.6700e-10    7.000e-01    4.378e-05  
  8.6800e-10    7.000e-01    4.377e-05  
  8.6900e-10    7.000e-01    4.376e-05  
  8.7000e-10    7.000e-01    4.375e-05  
  8.7100e-10    7.000e-01    4.374e-05  
  8.7200e-10    7.000e-01    4.373e-05  
  8.7300e-10    7.000e-01    4.372e-05  
  8.7400e-10    7.000e-01    4.371e-05  
  8.7500e-10    7.000e-01    4.370e-05  
  8.7600e-10    7.000e-01    4.369e-05  
  8.7700e-10    7.000e-01    4.368e-05  
  8.7800e-10    7.000e-01    4.367e-05  
  8.7900e-10    7.000e-01    4.367e-05  
  8.8000e-10    7.000e-01    4.366e-05  
  8.8100e-10    7.000e-01    4.365e-05  
  8.8200e-10    7.000e-01    4.364e-05  
  8.8300e-10    7.000e-01    4.363e-05  
  8.8400e-10    7.000e-01    4.362e-05  
  8.8500e-10    7.000e-01    4.361e-05  
  8.8600e-10    7.000e-01    4.360e-05  
  8.8700e-10    7.000e-01    4.359e-05  
  8.8800e-10    7.000e-01    4.358e-05  
  8.8900e-10    7.000e-01    4.357e-05  
  8.9000e-10    7.000e-01    4.357e-05  
  8.9100e-10    7.000e-01    4.356e-05  
  8.9200e-10    7.000e-01    4.355e-05  
  8.9300e-10    7.000e-01    4.354e-05  
  8.9400e-10    7.000e-01    4.353e-05  
  8.9500e-10    7.000e-01    4.352e-05  
  8.9600e-10    7.000e-01    4.351e-05  
  8.9700e-10    7.000e-01    4.350e-05  
  8.9800e-10    7.000e-01    4.349e-05  
  8.9900e-10    7.000e-01    4.348e-05  
  9.0000e-10    7.000e-01    4.347e-05  
  9.0100e-10    7.000e-01    4.347e-05  
  9.0200e-10    7.000e-01    4.348e-05  
  9.0300e-10    7.000e-01    4.349e-05  
  9.0400e-10    7.000e-01    4.350e-05  
  9.0500e-10    7.000e-01    4.350e-05  
  9.0600e-10    7.000e-01    4.351e-05  
  9.0700e-10    7.000e-01    4.352e-05  
  9.0800e-10    7.000e-01    4.353e-05  
  9.0900e-10    7.000e-01    4.354e-05  
  9.1000e-10    7.000e-01    4.355e-05  
  9.1100e-10    7.000e-01    4.356e-05  
  9.1200e-10    7.000e-01    4.357e-05  
  9.1300e-10    7.000e-01    4.358e-05  
  9.1400e-10    7.000e-01    4.359e-05  
  9.1500e-10    7.000e-01    4.360e-05  
  9.1600e-10    7.000e-01    4.360e-05  
  9.1700e-10    7.000e-01    4.361e-05  
  9.1800e-10    7.000e-01    4.362e-05  
  9.1900e-10    7.000e-01    4.363e-05  
  9.2000e-10    7.000e-01    4.364e-05  
  9.2100e-10    7.000e-01    4.365e-05  
  9.2200e-10    7.000e-01    4.366e-05  
  9.2300e-10    7.000e-01    4.367e-05  
  9.2400e-10    7.000e-01    4.368e-05  
  9.2500e-10    7.000e-01    4.369e-05  
  9.2600e-10    7.000e-01    4.370e-05  
  9.2700e-10    7.000e-01    4.370e-05  
  9.2800e-10    7.000e-01    4.371e-05  
  9.2900e-10    7.000e-01    4.372e-05  
  9.3000e-10    7.000e-01    4.373e-05  
  9.3100e-10    7.000e-01    4.374e-05  
  9.3200e-10    7.000e-01    4.375e-05  
  9.3300e-10    7.000e-01    4.376e-05  
  9.3400e-10    7.000e-01    4.377e-05  
  9.3500e-10    7.000e-01    4.378e-05  
  9.3600e-10    7.000e-01    4.379e-05  
  9.3700e-10    7.000e-01    4.380e-05  
  9.3800e-10    7.000e-01    4.380e-05  
  9.3900e-10    7.000e-01    4.381e-05  
  9.4000e-10    7.000e-01    4.382e-05  
  9.4100e-10    7.000e-01    4.383e-05  
  9.4200e-10    7.000e-01    4.384e-05  
  9.4300e-10    7.000e-01    4.385e-05  
  9.4400e-10    7.000e-01    4.386e-05  
  9.4500e-10    7.000e-01    4.387e-05  
  9.4600e-10    7.000e-01    4.388e-05  
  9.4700e-10    7.000e-01    4.389e-05  
  9.4800e-10    7.000e-01    4.390e-05  
  9.4900e-10    7.000e-01    4.390e-05  
  9.5000e-10    7.000e-01    4.391e-05  
  9.5100e-10    7.000e-01    4.392e-05  
  9.5200e-10    7.000e-01    4.391e-05  
  9.5300e-10    7.000e-01    4.390e-05  
  9.5400e-10    7.000e-01    4.389e-05  
  9.5500e-10    7.000e-01    4.388e-05  
  9.5600e-10    7.000e-01    4.387e-05  
  9.5700e-10    7.000e-01    4.386e-05  
  9.5800e-10    7.000e-01    4.385e-05  
  9.5900e-10    7.000e-01    4.385e-05  
  9.6000e-10    7.000e-01    4.384e-05  
  9.6100e-10    7.000e-01    4.383e-05  
  9.6200e-10    7.000e-01    4.382e-05  
  9.6300e-10    7.000e-01    4.381e-05  
  9.6400e-10    7.000e-01    4.380e-05  
  9.6500e-10    7.000e-01    4.379e-05  
  9.6600e-10    7.000e-01    4.378e-05  
  9.6700e-10    7.000e-01    4.377e-05  
  9.6800e-10    7.000e-01    4.376e-05  
  9.6900e-10    7.000e-01    4.375e-05  
  9.7000e-10    7.000e-01    4.374e-05  
  9.7100e-10    7.000e-01    4.374e-05  
  9.7200e-10    7.000e-01    4.373e-05  
  9.7300e-10    7.000e-01    4.372e-05  
  9.7400e-10    7.000e-01    4.371e-05  
  9.7500e-10    7.000e-01    4.370e-05  
  9.7600e-10    7.000e-01    4.369e-05  
  9.7700e-10    7.000e-01    4.368e-05  
  9.7800e-10    7.000e-01    4.367e-05  
  9.7900e-10    7.000e-01    4.366e-05  
  9.8000e-10    7.000e-01    4.365e-05  
  9.8100e-10    7.000e-01    4.364e-05  
  9.8200e-10    7.000e-01    4.363e-05  
  9.8300e-10    7.000e-01    4.363e-05  
  9.8400e-10    7.000e-01    4.362e-05  
  9.8500e-10    7.000e-01    4.361e-05  
  9.8600e-10    7.000e-01    4.360e-05  
  9.8700e-10    7.000e-01    4.359e-05  
  9.8800e-10    7.000e-01    4.358e-05  
  9.8900e-10    7.000e-01    4.357e-05  
  9.9000e-10    7.000e-01    4.356e-05  
  9.9100e-10    7.000e-01    4.355e-05  
  9.9200e-10    7.000e-01    4.354e-05  
  9.9300e-10    7.000e-01    4.353e-05  
  9.9400e-10    7.000e-01    4.352e-05  
  9.9500e-10    7.000e-01    4.351e-05  
  9.9600e-10    7.000e-01    4.351e-05  
  9.9700e-10    7.000e-01    4.350e-05  
  9.9800e-10    7.000e-01    4.349e-05  
  9.9900e-10    7.000e-01    4.348e-05  
  1.0000e-09    7.000e-01    4.347e-05  
y

          ***** job concluded
1****** HSPICE -- F-2011.09-SP2 64-BIT (Feb 27 2012) linux ******               
 ******  
 $ netlist of inverter

  ******  job statistics summary tnom=  25.000 temp=  25.000 *****
  
  
 ******  Machine Information  ******
 CPU:
 model name	: Intel(R) Xeon(R) CPU E5-2650 v4 @ 2.20GHz
 cpu MHz	: 2704.109
  
 OS:
 Linux version 3.10.0-693.17.1.el7.x86_64 (mockbuild@x86-041.build.eng.bos.redha
 t.com) (gcc version 4.8.5 20150623 (Red Hat 4.8.5-16) (GCC) ) #1 SMP Sun Jan 14
  10:36:03 EST 2018


  ******  HSPICE Threads Information  ******

  Command Line Threads Count :     1
  Available CPU Count        :    24
  Actual Threads Count       :     1


  ******  Circuit Statistics  ******
  # nodes       =     428 # elements   =     172
  # resistors   =       0 # capacitors =       0 # inductors   =       0
  # mutual_inds =       0 # vccs       =       0 # vcvs        =       0
  # cccs        =       0 # ccvs       =       0 # volt_srcs   =       2
  # curr_srcs   =       0 # diodes     =       0 # bjts        =       0
  # jfets       =       0 # mosfets    =     170 # U elements  =       0
  # T elements  =       0 # W elements =       0 # B elements  =       0
  # S elements  =       0 # P elements =       0 # va device   =       0
  # vector_srcs =       0


  ******  Runtime Statistics (seconds)  ******

  analysis           time    # points   tot. iter  conv.iter
  op point           0.01           1           4
  transient          0.41        1001         329          83 rev=         2
  readin             0.01
  errchk             0.01
  setup              0.00
  output             0.00


           peak memory used        138.07 megabytes
           total cpu time            0.44 seconds
           total elapsed time        0.68 seconds
           job started at     15:37:09 09/29/2020
           job ended   at     15:37:09 09/29/2020


 lic: Release hspice token(s) 
