 ****** HSPICE -- F-2011.09-SP2 64-BIT (Feb 27 2012) linux ******               
  Copyright (C) 2011 Synopsys, Inc. All Rights Reserved.                        
  Unpublished-rights reserved under US copyright laws.
  This program is protected by law and is subject to the
  terms and conditions of the license agreement from Synopsys.
  Use of this program is your acceptance to be bound by the
  license agreement. HSPICE is the trademark of Synopsys, Inc.
  Input File: ptm7lstp.sp                                                       
  Command line options: ptm7lstp.sp
 lic:  
 lic: FLEXlm: v10.8 
 lic: USER:   iliabautista         HOSTNAME: itn3.rc.usf.edu 
 lic: HOSTID:                      PID:      89646 
 lic: Using FLEXlm license file: 
 lic: 27000@license0.rc.usf.edu 
 lic: Checkout 1 hspice 
 lic: License/Maintenance for hspice will expire on 18-jul-2021/2019.06 
 lic: 1(in_use)/50(total) FLOATING license(s) on SERVER license0.rc.usf.edu 
 lic:   
  **warning** (../modelfiles/lstp/7nfet.pm:4) Model nfet device geometries will not be checked against the limits set by lmin, lmax, nfinmin and nfinmax. To enable this check, add a period(.) to the model name(i.e. enable model selector).
1****** HSPICE -- F-2011.09-SP2 64-BIT (Feb 27 2012) linux ******               
 ******  
 $ netlist of inverter

  ******  circuit name directory
 circuit number to circuit name directory
   number circuitname                     definition         multiplier
        0 main circuit
        1 xinput_0.                       inverter           1.00 
        2 xinput_1.                       inverter           1.00 
        3 xmodel_uut_grid.                model_uut_grid     1.00 
        4 xoutput_00.                     inverter           1.00 
        5 xoutput_10.                     inverter           1.00 
        6 xinput_0.xpfet.                 pfet               1.00 
        7 xinput_0.xnfet.                 nfet               1.00 
        8 xinput_1.xpfet.                 pfet               1.00 
        9 xinput_1.xnfet.                 nfet               1.00 
       10 xmodel_uut_grid.xinverter00.    inverter           1.00 
       11 xmodel_uut_grid.xinverter10.    inverter           1.00 
       12 xmodel_uut_grid.xinverter01.    inverter           1.00 
       13 xmodel_uut_grid.xinverter11.    inverter           1.00 
       14 xoutput_00.xpfet.               pfet               1.00 
       15 xoutput_00.xnfet.               nfet               1.00 
       16 xoutput_10.xpfet.               pfet               1.00 
       17 xoutput_10.xnfet.               nfet               1.00 
       18 xmodel_uut_grid.xinverter00.xpfet.
                                            pfet               1.00 
       19 xmodel_uut_grid.xinverter00.xnfet.
                                            nfet               1.00 
       20 xmodel_uut_grid.xinverter10.xpfet.
                                            pfet               1.00 
       21 xmodel_uut_grid.xinverter10.xnfet.
                                            nfet               1.00 
       22 xmodel_uut_grid.xinverter01.xpfet.
                                            pfet               1.00 
       23 xmodel_uut_grid.xinverter01.xnfet.
                                            nfet               1.00 
       24 xmodel_uut_grid.xinverter11.xpfet.
                                            pfet               1.00 
       25 xmodel_uut_grid.xinverter11.xnfet.
                                            nfet               1.00 
1****** HSPICE -- F-2011.09-SP2 64-BIT (Feb 27 2012) linux ******               
 ******  
 $ netlist of inverter

  ******  mos   model parameters tnom=  25.000 temp=  25.000 *****
 Model Name: pfet 
 BSIM-MG BULK Model(Level72)
   VERSION = 105.03  
   DEVTYPE = -1 
   BULKMOD = 1  
   COREMOD = 0 
   GEOMOD = 1 
   RDSMOD = 1 
   IGCMOD = 1 
   IGBMOD = 1 
   GIDLMOD = 0 
   IIMOD = 0 
   NQSMOD = 0 
   SHMOD = 0 
   RGATEMOD = 0 
   RGEOMOD = 1 
   CGEOMOD = 2 
   CAPMOD = 0 
   LINT = -2.5e-10 m
   LL =      0 m^(LLN+1)
   LLN =      1 
   DLC =      0 m
   DLBIN =      0 
   LLC =      0 m^(LLN+1)
   EOT = 8.4e-10 m
   TOXP = 1.15e-09 m
   EOTBOX = 1.4e-07 m
   HFIN = 1.8e-08 m
   FECH =      1 
   DELTAW =      0 m
   FECHCV =      1 
   DELTAWCV =      0 m
   NBODY =  1e+22 m^-3
   NSD =  3e+26 m^-3
   PHIG =  4.564 eV
   EPSROX =    3.9 
   EPSRSUB =   11.9 
   EASUB =   4.05 eV
   NI0SUB = 1.1e+16 m^-3
   BG0SUB =   1.12 eV
   NC0SUB = 2.86e+25 m^-3
   NGATE =      0 m^-3
   CIT = 1.3e-05 F/m^2
   CDSC = 0.0252 F/m^2
   CDSCD =  0.007 F/m^2
   CDSCDR =  0.007 
   DVT0 =   0.01 
   DVT1 =   0.69 
   PHIN =   0.05 V
   ETA0 =   0.54 
   ETA0R =   0.54 
   DSUB =    0.9 
   K1RSCE =      0 V^1/2
   LPE0 =  5e-09 m
   DVTSHIFT =      0 
   QMFACTOR =      0 
   QMTCENIV =      0 
   QMTCENCV =      0 
   AQMTCEN =      0 
   BQMTCEN = 1.2e-08 
   ETAQM =   0.54 
   QM0 = 0.001143 
   PQM =   0.66 
   QM0ACC =  0.001 
   PQMACC =   0.66 
   VSAT = 1.53e+05 
   AVSAT =      0 
   BVSAT =  1e-07 
   VSAT1 = 1.53e+05 
   AVSAT1 =      0 
   BVSAT1 =  1e-07 
   DELTAVSAT =      1 
   KSATIV =    0.8 
   MEXP =      3 
   AMEXP =      0 
   BMEXP =      1 
   PTWG =      0 
   APTWG =      0 
   BPTWG =  1e-07 
   AT = -0.00156 
   TMEXP =      0 
   PTWGT =  0.004 
   U0 =   0.04 
   ETAMOB =      2 
   UP =      0 
   LPA =      1 
   UA =    0.3 
   AUA =      0 
   BUA =  1e-07 
   EU =    1.8 
   AEU =      0 
   BEU =  1e-07 
   UD =      0 
   AUD =      0 
   BUD =  5e-08 
   UCS =      0 
   UTE =      0 
   UTL = -0.0015 
   UA1 = 0.001032 
   UD1 =      0 
   UCSTE = -0.00478 
   RDSWMIN =      0 
   RDSW =    100 
   ARDSW =      0 
   BRDSW =  1e-07 
   RSWMIN =      0 
   RSW =      0 
   ARSW =      0 
   BRSW =  1e-07 
   RDWMIN =      0 
   RDW =      0 
   ARDW =      0 
   BRDW =  1e-07 
   PRWG =      0 
   WR =      1 
   PRT =  0.001 
   PDIBL1 =    1.3 
   PDIBL2 = 0.0002 
   DROUT =   1.06 
   PVAG =      1 
   PCLM =    0.2 
   APCLM =      0 
   BPCLM =  1e-07 
   PCLMG =      0 
   VASAT =    0.6 
   PCLMCV =  0.013 
   PCLMGCV =      0 
   VASATCV =    0.2 
   RGEXT =      0 ohm
   RGFIN =  0.001 ohm
   RSHS =      0 ohm
   RSHD =      0 ohm
   HEPI =  8e-09 m
   TSILI =  7e-09 m
   RHOC =  5e-13 ohm/m^2
   RHORSD =      1 ohm/m
   RHOEXT =      1 ohm/m
   CRATIO =    0.5 
   DELTAPRSD =      0 m
   SDTERM = 0 
   LSP = 2.2e-09 m
   LDG =  2e-09 m
   EPSRSP =    3.9 
   TGATE = 7.5e-09 m
   TMASK =      0 m
   ASILIEND =      0 m^2
   ARSDEND =      0 m^2
   PRSDEND =      0 m
   NSDE =  9e+25 m^-3
   RGEOA =      1 
   RGEOB =      0 m^-1
   RGEOC =      0 m^-1
   RGEOD =      0 m^-1
   RGEOE =      0 m^-1
   CGEOA =      1 
   CGEOB =      0 m^-1
   CGEOC =      0 m^-1
   CGEOD =      0 m^-1
   CGEOE =      1 
   AIGBINV = 0.0111 (Fs^2/g)^0.5m^-1
   BIGBINV =   0.03 (Fs^2/g)^0.5m^-1
   CIGBINV =  0.006 V^-1
   EIGBINV =    1.1 V
   NIGBINV =    1.2 
   AIGBACC = 0.0149 
   BIGBACC = 0.000949 
   CIGBACC =  0.075 
   NIGBACC =      3 
   AIGC = 0.0136 (Fs^2/g)^0.5m^-1
   BIGC = 0.00171 (Fs^2/g)^0.5m^-1V^-1
   CIGC =  0.075 V^-1
   NIGC =      1 
   DLCIGS =      0 m
   AIGS = 0.0136 (Fs^2/g)^0.5m^-1
   BIGS = 0.00171 (Fs^2/g)^0.5m^-1V^-1
   CIGS =  0.075 V^-1
   DLCIGD =      0 m
   AIGD = 0.0136 (Fs^2/g)^0.5m^-1
   BIGD = 0.00171 (Fs^2/g)^0.5m^-1V^-1
   CIGD =  0.075 V^-1
   POXEDGE =      1 
   AGIDL = 5.729e-12 ohm^-1
   BGIDL =  3e+08 V/m
   EGIDL =    0.1 V
   AGISL = 5.729e-12 ohm^-1
   BGISL =  3e+08 V/m
   EGISL =    0.1 V
   ALPHA0 =      0 mV^-1
   ALPHA1 =      0 V^-1
   BETA0 =     30 V^-1
   ALPHAII =      0 
   BETAII0 =      0 V^-1
   BETAII1 =      0 
   BETAII2 =    0.1 V
   ESATII =  1e+07 V/m
   LII =  5e-10 V/m
   SII0 =    0.5 V^-1
   SII1 =    0.1 
   SII2 =      0 V
   SIID =      0 V
   EOTACC = 8.4e-10 m
   DELVFBACC =      0 V
   CFS = 2.56e-11 F/m
   CFD = 2.65e-11 F/m
   COVS = 2.5e-11 F/m
   COVD = 2.5e-11 F/m
   CGSO =      0 F/m
   CGDO =      0 F/m
   CGSL =      0 F/m
   CGDL =      0 F/m
   CKAPPAS =    0.6 V
   CKAPPAD =    0.6 V
   CGBO =      0 F/m
   CGBL =      0 F/m
   CKAPPAB =    0.6 V
   CSDESW =      0 F/m
   CJS = 0.0005 F/m^2
   CJD = 0.0005 F/m^2
   CJSWS =  5e-10 F/m
   CJSWD =  5e-10 F/m
   CJSWGS =      0 F/m
   CJSWGD =      0 F/m
   PBS =      1 V
   PBD =      1 V
   PBSWS =      1 V
   PBSWD =      1 V
   PBSWGS =      1 V
   PBSWGD =      1 V
   MJS, =    0.5 
   MJD =    0.5 
   MJSWS =   0.33 
   MJSWD =   0.33 
   MJSWGS =   0.33 
   MJSWGD =   0.33 
   SJS =      0 
   SJD =      0 
   SJSWS =      0 
   SJSWD =      0 
   SJSWGS =      0 
   SJSWGD =      0 
   MJS2 =  0.125 
   MJD2 =  0.125 
   MJSWS2 =   0.33 
   MJSWD2 =   0.33 
   MJSWGS2 =   0.33 
   MJSWGD2 =   0.33 
   JSS = 0.0001 A/m^2
   JSD = 0.0001 A/m^2
   JSWS =      0 A/m
   JSWD =      0 A/m
   JSWGS =      0 A/m
   JSWGD =      0 A/m
   NJS =      1 
   NJD =      1 
   IJTHSFWD =    0.1 A
   IJTHDFWD =    0.1 A
   IJTHSREV =    0.1 A
   IJTHDREV =    0.1 A
   BVS =     10 V
   BVD =     10 V
   XJBVS =      1 
   XJBVD =      1 
   JTSS =      0 A/m^2
   JTSD =      0 A/m^2
   JTSSWS =      0 A/m
   JTSSWD =      0 A/m
   JTSSWGS =      0 A/m
   JTSSWGD =      0 A/m
   JTWEFF =      0 m
   NJTS =     20 
   NJTSD =     20 
   NJTSSW =     20 
   NJTSSWD =     20 
   NJTSSWG =     20 
   NJTSSWGD =     20 
   VTSS =     10 V
   VTSD =     10 V
   VTSSWS =     10 V
   VTSSWD =     10 V
   VTSSWGS =     10 V
   VTSSWGD =     10 V
   LINTIGEN =      0 m
   NTGEN =      1 
   AIGEN =      0 m^-3V^-1
   BIGEN =      0 m^-3V^-3
   XRCRG1 =     12 
   XRCRG2 =      1 
   NSEG = 5 
   EF =      1 
   EM = 4.1e+07 V/m
   NOIA = 6.25e+39 eV^-1s^1-EFm^-3
   NOIB = 3.125e+24 eV^-1s^1-EFm^-1
   NOIC = 8.75e+07 eV^-1s^1-EFm
   NTNOI =      1 
   TNOM =  300.1 K
   TBGASUB = 0.000702 eV/K
   TBGBSUB =   1108 K
   KT1 =      0 V
   KT1L =      0 Vm
   IIT =   -0.5 
   TII =      0 
   TGIDL = -0.0003 K^-1
   IGT =    2.5 
   TCJ =      0 K^-1
   TCJSW =      0 K^-1
   TCJSWG =      0 K^-1
   TPB =      0 K^-1
   TPBSW =      0 K^-1
   TPBSWG =      0 K^-1
   XTIS =      3 
   XTID =      3 
   XTSS =   0.02 
   XTSD =   0.02 
   XTSSWS =   0.02 
   XTSSWD =   0.02 
   XTSSWGS =   0.02 
   XTSSWGD =   0.02 
   TNJTS =      0 
   TNJTSD =      0 
   TNJTSSW =      0 
   TNJTSSWD =      0 
   TNJTSSWG =      0 
   TNJTSSWGD =      0 
   RTH0 =   0.01 ohm
   CTH0 =  1e-05 F
   WTH0 =      0 m
   LNBODY =      0 
   NNBODY =      0 
   PNBODY =      0 
   LPHIG =      0 
   NPHIG =      0 
   PPHIG =      0 
   LNGATE =      0 
   NNGATE =      0 
   PNGATE =      0 
   LCIT =      0 
   NCIT =      0 
   PCIT =      0 
   LCDSC =      0 
   NCDSC =      0 
   PCDSC =      0 
   LCDSCD =      0 
   NCDSCD =      0 
   PCDSCD =      0 
   LCDSCDR =      0 
   NCDSCDR =      0 
   PCDSCDR =      0 
   LDVT0 =      0 
   NDVT0 =      0 
   PDVT0 =      0 
   LDVT1 =      0 
   NDVT1 =      0 
   PDVT1 =      0 
   LPHIN =      0 
   NPHIN =      0 
   PPHIN =      0 
   LETA0 =      0 
   NETA0 =      0 
   PETA0 =      0 
   LETA0R =      0 
   NETA0R =      0 
   PETA0R =      0 
   LDSUB =      0 
   NDSUB =      0 
   PDSUB =      0 
   LK1RSCE =      0 
   NK1RSCE =      0 
   PK1RSCE =      0 
   LLPE0 =      0 
   NLPE0 =      0 
   PLPE0 =      0 
   LQMFACTOR =      0 
   NQMFACTOR =      0 
   PQMFACTOR =      0 
   LQMTCENIV =      0 
   NQMTCENIV =      0 
   PQMTCENIV =      0 
   LQMTCENCV =      0 
   NQMTCENCV =      0 
   PQMTCENCV =      0 
   LVSAT =      0 
   NVSAT =      0 
   PVSAT =      0 
   LKSATIV =      0 
   NKSATIV =      0 
   PKSATIV =      0 
   LMEXP =      0 
   NMEXP =      0 
   PMEXP =      0 
   LPTWG =      0 
   NPTWG =      0 
   PPTWG =      0 
   LTHETASAT =      0 
   NTHETASAT =      0 
   PTHETASAT =      0 
   LU0 =      0 
   NU0 =      0 
   PU0 =      0 
   LUP =      0 
   NUP =      0 
   PUP =      0 
   LUA =      0 
   NUA =      0 
   PUA =      0 
   LEU =      0 
   NEU =      0 
   PEU =      0 
   LUD =      0 
   NUD =      0 
   PUD =      0 
   LUCS =      0 
   NUCS =      0 
   PUCS =      0 
   LPCLM =      0 
   NPCLM =      0 
   PPCLM =      0 
   LPCLMCV =      0 
   NPCLMCV =      0 
   PPCLMCV =      0 
   LRDSW =      0 
   NRDSW =      0 
   PRDSW =      0 
   LRSW =      0 
   NRSW =      0 
   PRSW =      0 
   LRDW =      0 
   NRDW =      0 
   PRDW =      0 
   LPRWG =      0 
   NPRWG =      0 
   PPRWG =      0 
   LWR =      0 
   NWR =      0 
   PWR =      0 
   LPDIBL1 =      0 
   NPDIBL1 =      0 
   PPDIBL1 =      0 
   LPDIBL2 =      0 
   NPDIBL2 =      0 
   PPDIBL2 =      0 
   LDROUT =      0 
   NDROUT =      0 
   PDROUT =      0 
   LPVAG =      0 
   NPVAG =      0 
   PPVAG =      0 
   LAIGBINV =      0 
   NAIGBINV =      0 
   PAIGBINV =      0 
   LBIGBINV =      0 
   NBIGBINV =      0 
   PBIGBINV =      0 
   LCIGBINV =      0 
   NCIGBINV =      0 
   PCIGBINV =      0 
   LEIGBINV =      0 
   NEIGBINV =      0 
   PEIGBINV =      0 
   LNIGBINV =      0 
   NNIGBINV =      0 
   PNIGBINV =      0 
   LAIGC =      0 
   NAIGC =      0 
   PAIGC =      0 
   LBIGC =      0 
   NBIGC =      0 
   PBIGC =      0 
   LCIGC =      0 
   NCIGC =      0 
   PCIGC =      0 
   LNIGC =      0 
   NNIGC =      0 
   PNIGC =      0 
   LAIGS =      0 
   NAIGS =      0 
   PAIGS =      0 
   LBIGS =      0 
   NBIGS =      0 
   PBIGS =      0 
   LCIGS =      0 
   NCIGS =      0 
   PCIGS =      0 
   LAIGD =      0 
   NAIGD =      0 
   PAIGD =      0 
   LBIGD =      0 
   NBIGD =      0 
   PBIGD =      0 
   LCIGD =      0 
   NCIGD =      0 
   PCIGD =      0 
   LPOXEDGE =      0 
   NPOXEDGE =      0 
   PPOXEDGE =      0 
   LAGIDL =      0 
   NAGIDL =      0 
   PAGIDL =      0 
   LBGIDL =      0 
   NBGIDL =      0 
   PBGIDL =      0 
   LEGIDL =      0 
   NEGIDL =      0 
   PEGIDL =      0 
   LAGISL =      0 
   NAGISL =      0 
   PAGISL =      0 
   LBGISL =      0 
   NBGISL =      0 
   PBGISL =      0 
   LEGISL =      0 
   NEGISL =      0 
   PEGISL =      0 
   LALPHA0 =      0 
   NALPHA0 =      0 
   PALPHA0 =      0 
   LALPHA1 =      0 
   NALPHA1 =      0 
   PALPHA1 =      0 
   LBETA0 =      0 
   NBETA0 =      0 
   PBETA0 =      0 
   LALPHAII =      0 
   NALPHAII =      0 
   PALPHAII =      0 
   LBETAII0 =      0 
   NBETAII0 =      0 
   PBETAII0 =      0 
   LBETAII1 =      0 
   NBETAII1 =      0 
   PBETAII1 =      0 
   LBETAII2 =      0 
   NBETAII2 =      0 
   PBETAII2 =      0 
   LESATII =      0 
   NESATII =      0 
   PESATII =      0 
   LLII =      0 
   NLII =      0 
   PLII =      0 
   LSII0 =      0 
   NSII0 =      0 
   PSII0 =      0 
   LSII1 =      0 
   NSII1 =      0 
   PSII1 =      0 
   LSII2 =      0 
   NSII2 =      0 
   PSII2 =      0 
   LSIID =      0 
   NSIID =      0 
   PSIID =      0 
   LCFS =      0 
   NCFS =      0 
   PCFS =      0 
   LCFD =      0 
   NCFD =      0 
   PCFD =      0 
   LCOVS =      0 
   NCOVS =      0 
   PCOVS =      0 
   LCOVD =      0 
   NCOVD =      0 
   PCOVD =      0 
   LCGSL =      0 
   NCGSL =      0 
   PCGSL =      0 
   LCGDL =      0 
   NCGDL =      0 
   PCGDL =      0 
   LCKAPPAS =      0 
   NCKAPPAS =      0 
   PCKAPPAS =      0 
   LCKAPPAD =      0 
   NCKAPPAD =      0 
   PCKAPPAD =      0 
   LCGBL =      0 
   NCGBL =      0 
   PCGBL =      0 
   LCKAPPAB =      0 
   NCKAPPAB =      0 
   PCKAPPAB =      0 
   LNTGEN =      0 
   NNTGEN =      0 
   PNTGEN =      0 
   LAIGEN =      0 
   NAIGEN =      0 
   PAIGEN =      0 
   LBIGEN =      0 
   NBIGEN =      0 
   PBIGEN =      0 
   LXRCRG1 =      0 
   NXRCRG1 =      0 
   PXRCRG1 =      0 
   LXRCRG2 =      0 
   NXRCRG2 =      0 
   PXRCRG2 =      0 
   LINTNOI =      0 
   NINTNOI =      0 
   PINTNOI =      0 
   LUTE =      0 
   NUTE =      0 
   PUTE =      0 
   LUTL =      0 
   NUTL =      0 
   PUTL =      0 
   LUA1 =      0 
   NUA1 =      0 
   PUA1 =      0 
   LUD1 =      0 
   NUD1 =      0 
   PUD1 =      0 
   LUCSTE =      0 
   NUCSTE =      0 
   PUCSTE =      0 
   LPTWGT =      0 
   NPTWGT =      0 
   PPTWGT =      0 
   LAT =      0 
   NAT =      0 
   PAT =      0 
   LSTTHETASAT =      0 
   NSTTHETASAT =      0 
   PSTTHETASAT =      0 
   LPRT =      0 
   NPRT =      0 
   PPRT =      0 
   LIIT =      0 
   NIIT =      0 
   PIIT =      0 
   LTII =      0 
   NTII =      0 
   PTII =      0 
   LTGIDL =      0 
   NTGIDL =      0 
   PTGIDL =      0 
   LIGT =      0 
   NIGT =      0 
   PIGT =      0 
   L = 1.1e-08 m
   D =  4e-08 m
   TFIN = 6.5e-09 m
   FPITCH = 2.2e-08 m
   NF = 1 
   NFIN = 1 
   NGCON = 1 
   ASEO =      0 m^2
   ADEO =      0 m^2
   PSEO =      0 m
   PDEO =      0 m
   ASEJ =      0 m^2
   ADEJ =      0 m^2
   PSEJ =      0 m
   PDEJ =      0 m
   CGSP =      0 F
   CGDP =      0 F
   CDSP =      0 F
   NRS =      0 
   NRD =      0 
   LRSD = 1.1e-08 m
   XL =      0 m
   DELVTRAND =      0 
   U0MULT =      1 
   IDS0MULT =      1 
   Lmin =  1e-08 m
   Lmax =  3e-08 m
   NFINmin = 0 
   NFINmax = 1 
   LVSAT1 =      0 
   NVSAT1 =      0 
   PVSAT1 =      0 
   LETAMOB =      0 
   NETAMOB =      0 
   PETAMOB =      0 
   LPCLMG =      0 
   NPCLMG =      0 
   PPCLMG =      0 
   LVASAT =      0 
   NVASAT =      0 
   PVASAT =      0 
   LAIGBACC =      0 
   NAIGBACC =      0 
   PAIGBACC =      0 
   LBIGBACC =      0 
   NBIGBACC =      0 
   PBIGBACC =      0 
   LCIGBACC =      0 
   NCIGBACC =      0 
   PCIGBACC =      0 
   LNIGBACC =      0 
   NNIGBACC =      0 
   PNIGBACC =      0 
 Model Name: nfet 
 BSIM-MG BULK Model(Level72)
   VERSION = 105.03  
   DEVTYPE = 1 
   BULKMOD = 1  
   COREMOD = 0 
   GEOMOD = 1 
   RDSMOD = 1 
   IGCMOD = 1 
   IGBMOD = 1 
   GIDLMOD = 0 
   IIMOD = 0 
   NQSMOD = 0 
   SHMOD = 0 
   RGATEMOD = 0 
   RGEOMOD = 1 
   CGEOMOD = 2 
   CAPMOD = 0 
   LINT = -2.5e-10 m
   LL =      0 m^(LLN+1)
   LLN =      1 
   DLC =      0 m
   DLBIN =      0 
   LLC =      0 m^(LLN+1)
   EOT = 8.4e-10 m
   TOXP = 1.15e-09 m
   EOTBOX = 1.4e-07 m
   HFIN = 1.8e-08 m
   FECH =      1 
   DELTAW =      0 m
   FECHCV =      1 
   DELTAWCV =      0 m
   NBODY =  1e+22 m^-3
   NSD =  3e+26 m^-3
   PHIG =  4.614 eV
   EPSROX =    3.9 
   EPSRSUB =   11.9 
   EASUB =   4.05 eV
   NI0SUB = 1.1e+16 m^-3
   BG0SUB =   1.12 eV
   NC0SUB = 2.86e+25 m^-3
   NGATE =      0 m^-3
   CIT = 1.3e-05 F/m^2
   CDSC = 0.0252 F/m^2
   CDSCD =  0.007 F/m^2
   CDSCDR =  0.007 
   DVT0 =   0.01 
   DVT1 =   0.69 
   PHIN =   0.05 V
   ETA0 =   0.39 
   ETA0R =   0.39 
   DSUB =    0.9 
   K1RSCE =      0 V^1/2
   LPE0 =  5e-09 m
   DVTSHIFT =      0 
   QMFACTOR =      0 
   QMTCENIV =      0 
   QMTCENCV =      0 
   AQMTCEN =      0 
   BQMTCEN = 1.2e-08 
   ETAQM =   0.54 
   QM0 = 0.001143 
   PQM =   0.66 
   QM0ACC =  0.001 
   PQMACC =   0.66 
   VSAT = 1.6e+05 
   AVSAT =      0 
   BVSAT =  1e-07 
   VSAT1 = 1.6e+05 
   AVSAT1 =      0 
   BVSAT1 =  1e-07 
   DELTAVSAT =      1 
   KSATIV =    0.8 
   MEXP =      3 
   AMEXP =      0 
   BMEXP =      1 
   PTWG =      0 
   APTWG =      0 
   BPTWG =  1e-07 
   AT = -0.00156 
   TMEXP =      0 
   PTWGT =  0.004 
   U0 =  0.065 
   ETAMOB =      2 
   UP =      0 
   LPA =      1 
   UA =    0.3 
   AUA =      0 
   BUA =  1e-07 
   EU =    1.8 
   AEU =      0 
   BEU =  1e-07 
   UD =      0 
   AUD =      0 
   BUD =  5e-08 
   UCS =      0 
   UTE =      0 
   UTL = -0.0015 
   UA1 = 0.001032 
   UD1 =      0 
   UCSTE = -0.00478 
   RDSWMIN =      0 
   RDSW =    100 
   ARDSW =      0 
   BRDSW =  1e-07 
   RSWMIN =      0 
   RSW =      0 
   ARSW =      0 
   BRSW =  1e-07 
   RDWMIN =      0 
   RDW =      0 
   ARDW =      0 
   BRDW =  1e-07 
   PRWG =      0 
   WR =      1 
   PRT =  0.001 
   PDIBL1 =    1.3 
   PDIBL2 = 0.0002 
   DROUT =   1.06 
   PVAG =      1 
   PCLM =    0.2 
   APCLM =      0 
   BPCLM =  1e-07 
   PCLMG =      0 
   VASAT =    0.6 
   PCLMCV =  0.013 
   PCLMGCV =      0 
   VASATCV =    0.2 
   RGEXT =      0 ohm
   RGFIN =  0.001 ohm
   RSHS =      0 ohm
   RSHD =      0 ohm
   HEPI =  8e-09 m
   TSILI =  7e-09 m
   RHOC =  4e-13 ohm/m^2
   RHORSD =      1 ohm/m
   RHOEXT =      1 ohm/m
   CRATIO =    0.5 
   DELTAPRSD =      0 m
   SDTERM = 0 
   LSP = 2.2e-09 m
   LDG =  2e-09 m
   EPSRSP =    3.9 
   TGATE = 7.5e-09 m
   TMASK =      0 m
   ASILIEND =      0 m^2
   ARSDEND =      0 m^2
   PRSDEND =      0 m
   NSDE =  9e+25 m^-3
   RGEOA =      1 
   RGEOB =      0 m^-1
   RGEOC =      0 m^-1
   RGEOD =      0 m^-1
   RGEOE =      0 m^-1
   CGEOA =      1 
   CGEOB =      0 m^-1
   CGEOC =      0 m^-1
   CGEOD =      0 m^-1
   CGEOE =      1 
   AIGBINV = 0.0111 (Fs^2/g)^0.5m^-1
   BIGBINV =   0.03 (Fs^2/g)^0.5m^-1
   CIGBINV =  0.006 V^-1
   EIGBINV =    1.1 V
   NIGBINV =    1.2 
   AIGBACC = 0.0149 
   BIGBACC = 0.000949 
   CIGBACC =  0.075 
   NIGBACC =      3 
   AIGC = 0.0136 (Fs^2/g)^0.5m^-1
   BIGC = 0.00171 (Fs^2/g)^0.5m^-1V^-1
   CIGC =  0.075 V^-1
   NIGC =      1 
   DLCIGS =      0 m
   AIGS = 0.0136 (Fs^2/g)^0.5m^-1
   BIGS = 0.00171 (Fs^2/g)^0.5m^-1V^-1
   CIGS =  0.075 V^-1
   DLCIGD =      0 m
   AIGD = 0.0136 (Fs^2/g)^0.5m^-1
   BIGD = 0.00171 (Fs^2/g)^0.5m^-1V^-1
   CIGD =  0.075 V^-1
   POXEDGE =      1 
   AGIDL = 5.729e-12 ohm^-1
   BGIDL =  3e+08 V/m
   EGIDL =    0.1 V
   AGISL = 5.729e-12 ohm^-1
   BGISL =  3e+08 V/m
   EGISL =    0.1 V
   ALPHA0 =      0 mV^-1
   ALPHA1 =      0 V^-1
   BETA0 =     30 V^-1
   ALPHAII =      0 
   BETAII0 =      0 V^-1
   BETAII1 =      0 
   BETAII2 =    0.1 V
   ESATII =  1e+07 V/m
   LII =  5e-10 V/m
   SII0 =    0.5 V^-1
   SII1 =    0.1 
   SII2 =      0 V
   SIID =      0 V
   EOTACC = 8.4e-10 m
   DELVFBACC =      0 V
   CFS = 2.56e-11 F/m
   CFD = 2.65e-11 F/m
   COVS = 2.5e-11 F/m
   COVD = 2.5e-11 F/m
   CGSO =      0 F/m
   CGDO =      0 F/m
   CGSL =      0 F/m
   CGDL =      0 F/m
   CKAPPAS =    0.6 V
   CKAPPAD =    0.6 V
   CGBO =      0 F/m
   CGBL =      0 F/m
   CKAPPAB =    0.6 V
   CSDESW =      0 F/m
   CJS = 0.0005 F/m^2
   CJD = 0.0005 F/m^2
   CJSWS =  5e-10 F/m
   CJSWD =  5e-10 F/m
   CJSWGS =      0 F/m
   CJSWGD =      0 F/m
   PBS =      1 V
   PBD =      1 V
   PBSWS =      1 V
   PBSWD =      1 V
   PBSWGS =      1 V
   PBSWGD =      1 V
   MJS, =    0.5 
   MJD =    0.5 
   MJSWS =   0.33 
   MJSWD =   0.33 
   MJSWGS =   0.33 
   MJSWGD =   0.33 
   SJS =      0 
   SJD =      0 
   SJSWS =      0 
   SJSWD =      0 
   SJSWGS =      0 
   SJSWGD =      0 
   MJS2 =  0.125 
   MJD2 =  0.125 
   MJSWS2 =   0.33 
   MJSWD2 =   0.33 
   MJSWGS2 =   0.33 
   MJSWGD2 =   0.33 
   JSS = 0.0001 A/m^2
   JSD = 0.0001 A/m^2
   JSWS =      0 A/m
   JSWD =      0 A/m
   JSWGS =      0 A/m
   JSWGD =      0 A/m
   NJS =      1 
   NJD =      1 
   IJTHSFWD =    0.1 A
   IJTHDFWD =    0.1 A
   IJTHSREV =    0.1 A
   IJTHDREV =    0.1 A
   BVS =     10 V
   BVD =     10 V
   XJBVS =      1 
   XJBVD =      1 
   JTSS =      0 A/m^2
   JTSD =      0 A/m^2
   JTSSWS =      0 A/m
   JTSSWD =      0 A/m
   JTSSWGS =      0 A/m
   JTSSWGD =      0 A/m
   JTWEFF =      0 m
   NJTS =     20 
   NJTSD =     20 
   NJTSSW =     20 
   NJTSSWD =     20 
   NJTSSWG =     20 
   NJTSSWGD =     20 
   VTSS =     10 V
   VTSD =     10 V
   VTSSWS =     10 V
   VTSSWD =     10 V
   VTSSWGS =     10 V
   VTSSWGD =     10 V
   LINTIGEN =      0 m
   NTGEN =      1 
   AIGEN =      0 m^-3V^-1
   BIGEN =      0 m^-3V^-3
   XRCRG1 =     12 
   XRCRG2 =      1 
   NSEG = 5 
   EF =      1 
   EM = 4.1e+07 V/m
   NOIA = 6.25e+39 eV^-1s^1-EFm^-3
   NOIB = 3.125e+24 eV^-1s^1-EFm^-1
   NOIC = 8.75e+07 eV^-1s^1-EFm
   NTNOI =      1 
   TNOM =  300.1 K
   TBGASUB = 0.000702 eV/K
   TBGBSUB =   1108 K
   KT1 =      0 V
   KT1L =      0 Vm
   IIT =   -0.5 
   TII =      0 
   TGIDL = -0.0003 K^-1
   IGT =    2.5 
   TCJ =      0 K^-1
   TCJSW =      0 K^-1
   TCJSWG =      0 K^-1
   TPB =      0 K^-1
   TPBSW =      0 K^-1
   TPBSWG =      0 K^-1
   XTIS =      3 
   XTID =      3 
   XTSS =   0.02 
   XTSD =   0.02 
   XTSSWS =   0.02 
   XTSSWD =   0.02 
   XTSSWGS =   0.02 
   XTSSWGD =   0.02 
   TNJTS =      0 
   TNJTSD =      0 
   TNJTSSW =      0 
   TNJTSSWD =      0 
   TNJTSSWG =      0 
   TNJTSSWGD =      0 
   RTH0 =   0.01 ohm
   CTH0 =  1e-05 F
   WTH0 =      0 m
   LNBODY =      0 
   NNBODY =      0 
   PNBODY =      0 
   LPHIG =      0 
   NPHIG =      0 
   PPHIG =      0 
   LNGATE =      0 
   NNGATE =      0 
   PNGATE =      0 
   LCIT =      0 
   NCIT =      0 
   PCIT =      0 
   LCDSC =      0 
   NCDSC =      0 
   PCDSC =      0 
   LCDSCD =      0 
   NCDSCD =      0 
   PCDSCD =      0 
   LCDSCDR =      0 
   NCDSCDR =      0 
   PCDSCDR =      0 
   LDVT0 =      0 
   NDVT0 =      0 
   PDVT0 =      0 
   LDVT1 =      0 
   NDVT1 =      0 
   PDVT1 =      0 
   LPHIN =      0 
   NPHIN =      0 
   PPHIN =      0 
   LETA0 =      0 
   NETA0 =      0 
   PETA0 =      0 
   LETA0R =      0 
   NETA0R =      0 
   PETA0R =      0 
   LDSUB =      0 
   NDSUB =      0 
   PDSUB =      0 
   LK1RSCE =      0 
   NK1RSCE =      0 
   PK1RSCE =      0 
   LLPE0 =      0 
   NLPE0 =      0 
   PLPE0 =      0 
   LQMFACTOR =      0 
   NQMFACTOR =      0 
   PQMFACTOR =      0 
   LQMTCENIV =      0 
   NQMTCENIV =      0 
   PQMTCENIV =      0 
   LQMTCENCV =      0 
   NQMTCENCV =      0 
   PQMTCENCV =      0 
   LVSAT =      0 
   NVSAT =      0 
   PVSAT =      0 
   LKSATIV =      0 
   NKSATIV =      0 
   PKSATIV =      0 
   LMEXP =      0 
   NMEXP =      0 
   PMEXP =      0 
   LPTWG =      0 
   NPTWG =      0 
   PPTWG =      0 
   LTHETASAT =      0 
   NTHETASAT =      0 
   PTHETASAT =      0 
   LU0 =      0 
   NU0 =      0 
   PU0 =      0 
   LUP =      0 
   NUP =      0 
   PUP =      0 
   LUA =      0 
   NUA =      0 
   PUA =      0 
   LEU =      0 
   NEU =      0 
   PEU =      0 
   LUD =      0 
   NUD =      0 
   PUD =      0 
   LUCS =      0 
   NUCS =      0 
   PUCS =      0 
   LPCLM =      0 
   NPCLM =      0 
   PPCLM =      0 
   LPCLMCV =      0 
   NPCLMCV =      0 
   PPCLMCV =      0 
   LRDSW =      0 
   NRDSW =      0 
   PRDSW =      0 
   LRSW =      0 
   NRSW =      0 
   PRSW =      0 
   LRDW =      0 
   NRDW =      0 
   PRDW =      0 
   LPRWG =      0 
   NPRWG =      0 
   PPRWG =      0 
   LWR =      0 
   NWR =      0 
   PWR =      0 
   LPDIBL1 =      0 
   NPDIBL1 =      0 
   PPDIBL1 =      0 
   LPDIBL2 =      0 
   NPDIBL2 =      0 
   PPDIBL2 =      0 
   LDROUT =      0 
   NDROUT =      0 
   PDROUT =      0 
   LPVAG =      0 
   NPVAG =      0 
   PPVAG =      0 
   LAIGBINV =      0 
   NAIGBINV =      0 
   PAIGBINV =      0 
   LBIGBINV =      0 
   NBIGBINV =      0 
   PBIGBINV =      0 
   LCIGBINV =      0 
   NCIGBINV =      0 
   PCIGBINV =      0 
   LEIGBINV =      0 
   NEIGBINV =      0 
   PEIGBINV =      0 
   LNIGBINV =      0 
   NNIGBINV =      0 
   PNIGBINV =      0 
   LAIGC =      0 
   NAIGC =      0 
   PAIGC =      0 
   LBIGC =      0 
   NBIGC =      0 
   PBIGC =      0 
   LCIGC =      0 
   NCIGC =      0 
   PCIGC =      0 
   LNIGC =      0 
   NNIGC =      0 
   PNIGC =      0 
   LAIGS =      0 
   NAIGS =      0 
   PAIGS =      0 
   LBIGS =      0 
   NBIGS =      0 
   PBIGS =      0 
   LCIGS =      0 
   NCIGS =      0 
   PCIGS =      0 
   LAIGD =      0 
   NAIGD =      0 
   PAIGD =      0 
   LBIGD =      0 
   NBIGD =      0 
   PBIGD =      0 
   LCIGD =      0 
   NCIGD =      0 
   PCIGD =      0 
   LPOXEDGE =      0 
   NPOXEDGE =      0 
   PPOXEDGE =      0 
   LAGIDL =      0 
   NAGIDL =      0 
   PAGIDL =      0 
   LBGIDL =      0 
   NBGIDL =      0 
   PBGIDL =      0 
   LEGIDL =      0 
   NEGIDL =      0 
   PEGIDL =      0 
   LAGISL =      0 
   NAGISL =      0 
   PAGISL =      0 
   LBGISL =      0 
   NBGISL =      0 
   PBGISL =      0 
   LEGISL =      0 
   NEGISL =      0 
   PEGISL =      0 
   LALPHA0 =      0 
   NALPHA0 =      0 
   PALPHA0 =      0 
   LALPHA1 =      0 
   NALPHA1 =      0 
   PALPHA1 =      0 
   LBETA0 =      0 
   NBETA0 =      0 
   PBETA0 =      0 
   LALPHAII =      0 
   NALPHAII =      0 
   PALPHAII =      0 
   LBETAII0 =      0 
   NBETAII0 =      0 
   PBETAII0 =      0 
   LBETAII1 =      0 
   NBETAII1 =      0 
   PBETAII1 =      0 
   LBETAII2 =      0 
   NBETAII2 =      0 
   PBETAII2 =      0 
   LESATII =      0 
   NESATII =      0 
   PESATII =      0 
   LLII =      0 
   NLII =      0 
   PLII =      0 
   LSII0 =      0 
   NSII0 =      0 
   PSII0 =      0 
   LSII1 =      0 
   NSII1 =      0 
   PSII1 =      0 
   LSII2 =      0 
   NSII2 =      0 
   PSII2 =      0 
   LSIID =      0 
   NSIID =      0 
   PSIID =      0 
   LCFS =      0 
   NCFS =      0 
   PCFS =      0 
   LCFD =      0 
   NCFD =      0 
   PCFD =      0 
   LCOVS =      0 
   NCOVS =      0 
   PCOVS =      0 
   LCOVD =      0 
   NCOVD =      0 
   PCOVD =      0 
   LCGSL =      0 
   NCGSL =      0 
   PCGSL =      0 
   LCGDL =      0 
   NCGDL =      0 
   PCGDL =      0 
   LCKAPPAS =      0 
   NCKAPPAS =      0 
   PCKAPPAS =      0 
   LCKAPPAD =      0 
   NCKAPPAD =      0 
   PCKAPPAD =      0 
   LCGBL =      0 
   NCGBL =      0 
   PCGBL =      0 
   LCKAPPAB =      0 
   NCKAPPAB =      0 
   PCKAPPAB =      0 
   LNTGEN =      0 
   NNTGEN =      0 
   PNTGEN =      0 
   LAIGEN =      0 
   NAIGEN =      0 
   PAIGEN =      0 
   LBIGEN =      0 
   NBIGEN =      0 
   PBIGEN =      0 
   LXRCRG1 =      0 
   NXRCRG1 =      0 
   PXRCRG1 =      0 
   LXRCRG2 =      0 
   NXRCRG2 =      0 
   PXRCRG2 =      0 
   LINTNOI =      0 
   NINTNOI =      0 
   PINTNOI =      0 
   LUTE =      0 
   NUTE =      0 
   PUTE =      0 
   LUTL =      0 
   NUTL =      0 
   PUTL =      0 
   LUA1 =      0 
   NUA1 =      0 
   PUA1 =      0 
   LUD1 =      0 
   NUD1 =      0 
   PUD1 =      0 
   LUCSTE =      0 
   NUCSTE =      0 
   PUCSTE =      0 
   LPTWGT =      0 
   NPTWGT =      0 
   PPTWGT =      0 
   LAT =      0 
   NAT =      0 
   PAT =      0 
   LSTTHETASAT =      0 
   NSTTHETASAT =      0 
   PSTTHETASAT =      0 
   LPRT =      0 
   NPRT =      0 
   PPRT =      0 
   LIIT =      0 
   NIIT =      0 
   PIIT =      0 
   LTII =      0 
   NTII =      0 
   PTII =      0 
   LTGIDL =      0 
   NTGIDL =      0 
   PTGIDL =      0 
   LIGT =      0 
   NIGT =      0 
   PIGT =      0 
   L = 1.1e-08 m
   D =  4e-08 m
   TFIN = 6.5e-09 m
   FPITCH = 2.2e-08 m
   NF = 1 
   NFIN = 1 
   NGCON = 1 
   ASEO =      0 m^2
   ADEO =      0 m^2
   PSEO =      0 m
   PDEO =      0 m
   ASEJ =      0 m^2
   ADEJ =      0 m^2
   PSEJ =      0 m
   PDEJ =      0 m
   CGSP =      0 F
   CGDP =      0 F
   CDSP =      0 F
   NRS =      0 
   NRD =      0 
   LRSD = 1.1e-08 m
   XL =      0 m
   DELVTRAND =      0 
   U0MULT =      1 
   IDS0MULT =      1 
   Lmin =  1e-08 m
   Lmax =  3e-08 m
   NFINmin = 0 
   NFINmax = 1 
   LVSAT1 =      0 
   NVSAT1 =      0 
   PVSAT1 =      0 
   LETAMOB =      0 
   NETAMOB =      0 
   PETAMOB =      0 
   LPCLMG =      0 
   NPCLMG =      0 
   PPCLMG =      0 
   LVASAT =      0 
   NVASAT =      0 
   PVASAT =      0 
   LAIGBACC =      0 
   NAIGBACC =      0 
   PAIGBACC =      0 
   LBIGBACC =      0 
   NBIGBACC =      0 
   PBIGBACC =      0 
   LCIGBACC =      0 
   NCIGBACC =      0 
   PCIGBACC =      0 
   LNIGBACC =      0 
   NNIGBACC =      0 
   PNIGBACC =      0 
 Model Name: pfet 
 BSIM-MG BULK Model(Level72)
   VERSION = 105.03  
   DEVTYPE = -1 
   BULKMOD = 1  
   COREMOD = 0 
   GEOMOD = 1 
   RDSMOD = 1 
   IGCMOD = 1 
   IGBMOD = 1 
   GIDLMOD = 0 
   IIMOD = 0 
   NQSMOD = 0 
   SHMOD = 0 
   RGATEMOD = 0 
   RGEOMOD = 1 
   CGEOMOD = 2 
   CAPMOD = 0 
   LINT = -2.5e-10 m
   LL =      0 m^(LLN+1)
   LLN =      1 
   DLC =      0 m
   DLBIN =      0 
   LLC =      0 m^(LLN+1)
   EOT = 8.4e-10 m
   TOXP = 1.15e-09 m
   EOTBOX = 1.4e-07 m
   HFIN = 1.8e-08 m
   FECH =      1 
   DELTAW =      0 m
   FECHCV =      1 
   DELTAWCV =      0 m
   NBODY =  1e+22 m^-3
   NSD =  3e+26 m^-3
   PHIG =  4.564 eV
   EPSROX =    3.9 
   EPSRSUB =   11.9 
   EASUB =   4.05 eV
   NI0SUB = 1.1e+16 m^-3
   BG0SUB =   1.12 eV
   NC0SUB = 2.86e+25 m^-3
   NGATE =      0 m^-3
   CIT = 1.3e-05 F/m^2
   CDSC = 0.0252 F/m^2
   CDSCD =  0.007 F/m^2
   CDSCDR =  0.007 
   DVT0 =   0.01 
   DVT1 =   0.69 
   PHIN =   0.05 V
   ETA0 =   0.54 
   ETA0R =   0.54 
   DSUB =    0.9 
   K1RSCE =      0 V^1/2
   LPE0 =  5e-09 m
   DVTSHIFT =      0 
   QMFACTOR =      0 
   QMTCENIV =      0 
   QMTCENCV =      0 
   AQMTCEN =      0 
   BQMTCEN = 1.2e-08 
   ETAQM =   0.54 
   QM0 = 0.001143 
   PQM =   0.66 
   QM0ACC =  0.001 
   PQMACC =   0.66 
   VSAT = 1.53e+05 
   AVSAT =      0 
   BVSAT =  1e-07 
   VSAT1 = 1.53e+05 
   AVSAT1 =      0 
   BVSAT1 =  1e-07 
   DELTAVSAT =      1 
   KSATIV =    0.8 
   MEXP =      3 
   AMEXP =      0 
   BMEXP =      1 
   PTWG =      0 
   APTWG =      0 
   BPTWG =  1e-07 
   AT = -0.00156 
   TMEXP =      0 
   PTWGT =  0.004 
   U0 =   0.04 
   ETAMOB =      2 
   UP =      0 
   LPA =      1 
   UA =    0.3 
   AUA =      0 
   BUA =  1e-07 
   EU =    1.8 
   AEU =      0 
   BEU =  1e-07 
   UD =      0 
   AUD =      0 
   BUD =  5e-08 
   UCS =      0 
   UTE =      0 
   UTL = -0.0015 
   UA1 = 0.001032 
   UD1 =      0 
   UCSTE = -0.00478 
   RDSWMIN =      0 
   RDSW =    100 
   ARDSW =      0 
   BRDSW =  1e-07 
   RSWMIN =      0 
   RSW =      0 
   ARSW =      0 
   BRSW =  1e-07 
   RDWMIN =      0 
   RDW =      0 
   ARDW =      0 
   BRDW =  1e-07 
   PRWG =      0 
   WR =      1 
   PRT =  0.001 
   PDIBL1 =    1.3 
   PDIBL2 = 0.0002 
   DROUT =   1.06 
   PVAG =      1 
   PCLM =    0.2 
   APCLM =      0 
   BPCLM =  1e-07 
   PCLMG =      0 
   VASAT =    0.6 
   PCLMCV =  0.013 
   PCLMGCV =      0 
   VASATCV =    0.2 
   RGEXT =      0 ohm
   RGFIN =  0.001 ohm
   RSHS =      0 ohm
   RSHD =      0 ohm
   HEPI =  8e-09 m
   TSILI =  7e-09 m
   RHOC =  5e-13 ohm/m^2
   RHORSD =      1 ohm/m
   RHOEXT =      1 ohm/m
   CRATIO =    0.5 
   DELTAPRSD =      0 m
   SDTERM = 0 
   LSP = 2.2e-09 m
   LDG =  2e-09 m
   EPSRSP =    3.9 
   TGATE = 7.5e-09 m
   TMASK =      0 m
   ASILIEND =      0 m^2
   ARSDEND =      0 m^2
   PRSDEND =      0 m
   NSDE =  9e+25 m^-3
   RGEOA =      1 
   RGEOB =      0 m^-1
   RGEOC =      0 m^-1
   RGEOD =      0 m^-1
   RGEOE =      0 m^-1
   CGEOA =      1 
   CGEOB =      0 m^-1
   CGEOC =      0 m^-1
   CGEOD =      0 m^-1
   CGEOE =      1 
   AIGBINV = 0.0111 (Fs^2/g)^0.5m^-1
   BIGBINV =   0.03 (Fs^2/g)^0.5m^-1
   CIGBINV =  0.006 V^-1
   EIGBINV =    1.1 V
   NIGBINV =    1.2 
   AIGBACC = 0.0149 
   BIGBACC = 0.000949 
   CIGBACC =  0.075 
   NIGBACC =      3 
   AIGC = 0.0136 (Fs^2/g)^0.5m^-1
   BIGC = 0.00171 (Fs^2/g)^0.5m^-1V^-1
   CIGC =  0.075 V^-1
   NIGC =      1 
   DLCIGS =      0 m
   AIGS = 0.0136 (Fs^2/g)^0.5m^-1
   BIGS = 0.00171 (Fs^2/g)^0.5m^-1V^-1
   CIGS =  0.075 V^-1
   DLCIGD =      0 m
   AIGD = 0.0136 (Fs^2/g)^0.5m^-1
   BIGD = 0.00171 (Fs^2/g)^0.5m^-1V^-1
   CIGD =  0.075 V^-1
   POXEDGE =      1 
   AGIDL = 5.729e-12 ohm^-1
   BGIDL =  3e+08 V/m
   EGIDL =    0.1 V
   AGISL = 5.729e-12 ohm^-1
   BGISL =  3e+08 V/m
   EGISL =    0.1 V
   ALPHA0 =      0 mV^-1
   ALPHA1 =      0 V^-1
   BETA0 =     30 V^-1
   ALPHAII =      0 
   BETAII0 =      0 V^-1
   BETAII1 =      0 
   BETAII2 =    0.1 V
   ESATII =  1e+07 V/m
   LII =  5e-10 V/m
   SII0 =    0.5 V^-1
   SII1 =    0.1 
   SII2 =      0 V
   SIID =      0 V
   EOTACC = 8.4e-10 m
   DELVFBACC =      0 V
   CFS = 2.56e-11 F/m
   CFD = 2.65e-11 F/m
   COVS = 2.5e-11 F/m
   COVD = 2.5e-11 F/m
   CGSO =      0 F/m
   CGDO =      0 F/m
   CGSL =      0 F/m
   CGDL =      0 F/m
   CKAPPAS =    0.6 V
   CKAPPAD =    0.6 V
   CGBO =      0 F/m
   CGBL =      0 F/m
   CKAPPAB =    0.6 V
   CSDESW =      0 F/m
   CJS = 0.0005 F/m^2
   CJD = 0.0005 F/m^2
   CJSWS =  5e-10 F/m
   CJSWD =  5e-10 F/m
   CJSWGS =      0 F/m
   CJSWGD =      0 F/m
   PBS =      1 V
   PBD =      1 V
   PBSWS =      1 V
   PBSWD =      1 V
   PBSWGS =      1 V
   PBSWGD =      1 V
   MJS, =    0.5 
   MJD =    0.5 
   MJSWS =   0.33 
   MJSWD =   0.33 
   MJSWGS =   0.33 
   MJSWGD =   0.33 
   SJS =      0 
   SJD =      0 
   SJSWS =      0 
   SJSWD =      0 
   SJSWGS =      0 
   SJSWGD =      0 
   MJS2 =  0.125 
   MJD2 =  0.125 
   MJSWS2 =   0.33 
   MJSWD2 =   0.33 
   MJSWGS2 =   0.33 
   MJSWGD2 =   0.33 
   JSS = 0.0001 A/m^2
   JSD = 0.0001 A/m^2
   JSWS =      0 A/m
   JSWD =      0 A/m
   JSWGS =      0 A/m
   JSWGD =      0 A/m
   NJS =      1 
   NJD =      1 
   IJTHSFWD =    0.1 A
   IJTHDFWD =    0.1 A
   IJTHSREV =    0.1 A
   IJTHDREV =    0.1 A
   BVS =     10 V
   BVD =     10 V
   XJBVS =      1 
   XJBVD =      1 
   JTSS =      0 A/m^2
   JTSD =      0 A/m^2
   JTSSWS =      0 A/m
   JTSSWD =      0 A/m
   JTSSWGS =      0 A/m
   JTSSWGD =      0 A/m
   JTWEFF =      0 m
   NJTS =     20 
   NJTSD =     20 
   NJTSSW =     20 
   NJTSSWD =     20 
   NJTSSWG =     20 
   NJTSSWGD =     20 
   VTSS =     10 V
   VTSD =     10 V
   VTSSWS =     10 V
   VTSSWD =     10 V
   VTSSWGS =     10 V
   VTSSWGD =     10 V
   LINTIGEN =      0 m
   NTGEN =      1 
   AIGEN =      0 m^-3V^-1
   BIGEN =      0 m^-3V^-3
   XRCRG1 =     12 
   XRCRG2 =      1 
   NSEG = 5 
   EF =      1 
   EM = 4.1e+07 V/m
   NOIA = 6.25e+39 eV^-1s^1-EFm^-3
   NOIB = 3.125e+24 eV^-1s^1-EFm^-1
   NOIC = 8.75e+07 eV^-1s^1-EFm
   NTNOI =      1 
   TNOM =  300.1 K
   TBGASUB = 0.000702 eV/K
   TBGBSUB =   1108 K
   KT1 =      0 V
   KT1L =      0 Vm
   IIT =   -0.5 
   TII =      0 
   TGIDL = -0.0003 K^-1
   IGT =    2.5 
   TCJ =      0 K^-1
   TCJSW =      0 K^-1
   TCJSWG =      0 K^-1
   TPB =      0 K^-1
   TPBSW =      0 K^-1
   TPBSWG =      0 K^-1
   XTIS =      3 
   XTID =      3 
   XTSS =   0.02 
   XTSD =   0.02 
   XTSSWS =   0.02 
   XTSSWD =   0.02 
   XTSSWGS =   0.02 
   XTSSWGD =   0.02 
   TNJTS =      0 
   TNJTSD =      0 
   TNJTSSW =      0 
   TNJTSSWD =      0 
   TNJTSSWG =      0 
   TNJTSSWGD =      0 
   RTH0 =   0.01 ohm
   CTH0 =  1e-05 F
   WTH0 =      0 m
   LNBODY =      0 
   NNBODY =      0 
   PNBODY =      0 
   LPHIG =      0 
   NPHIG =      0 
   PPHIG =      0 
   LNGATE =      0 
   NNGATE =      0 
   PNGATE =      0 
   LCIT =      0 
   NCIT =      0 
   PCIT =      0 
   LCDSC =      0 
   NCDSC =      0 
   PCDSC =      0 
   LCDSCD =      0 
   NCDSCD =      0 
   PCDSCD =      0 
   LCDSCDR =      0 
   NCDSCDR =      0 
   PCDSCDR =      0 
   LDVT0 =      0 
   NDVT0 =      0 
   PDVT0 =      0 
   LDVT1 =      0 
   NDVT1 =      0 
   PDVT1 =      0 
   LPHIN =      0 
   NPHIN =      0 
   PPHIN =      0 
   LETA0 =      0 
   NETA0 =      0 
   PETA0 =      0 
   LETA0R =      0 
   NETA0R =      0 
   PETA0R =      0 
   LDSUB =      0 
   NDSUB =      0 
   PDSUB =      0 
   LK1RSCE =      0 
   NK1RSCE =      0 
   PK1RSCE =      0 
   LLPE0 =      0 
   NLPE0 =      0 
   PLPE0 =      0 
   LQMFACTOR =      0 
   NQMFACTOR =      0 
   PQMFACTOR =      0 
   LQMTCENIV =      0 
   NQMTCENIV =      0 
   PQMTCENIV =      0 
   LQMTCENCV =      0 
   NQMTCENCV =      0 
   PQMTCENCV =      0 
   LVSAT =      0 
   NVSAT =      0 
   PVSAT =      0 
   LKSATIV =      0 
   NKSATIV =      0 
   PKSATIV =      0 
   LMEXP =      0 
   NMEXP =      0 
   PMEXP =      0 
   LPTWG =      0 
   NPTWG =      0 
   PPTWG =      0 
   LTHETASAT =      0 
   NTHETASAT =      0 
   PTHETASAT =      0 
   LU0 =      0 
   NU0 =      0 
   PU0 =      0 
   LUP =      0 
   NUP =      0 
   PUP =      0 
   LUA =      0 
   NUA =      0 
   PUA =      0 
   LEU =      0 
   NEU =      0 
   PEU =      0 
   LUD =      0 
   NUD =      0 
   PUD =      0 
   LUCS =      0 
   NUCS =      0 
   PUCS =      0 
   LPCLM =      0 
   NPCLM =      0 
   PPCLM =      0 
   LPCLMCV =      0 
   NPCLMCV =      0 
   PPCLMCV =      0 
   LRDSW =      0 
   NRDSW =      0 
   PRDSW =      0 
   LRSW =      0 
   NRSW =      0 
   PRSW =      0 
   LRDW =      0 
   NRDW =      0 
   PRDW =      0 
   LPRWG =      0 
   NPRWG =      0 
   PPRWG =      0 
   LWR =      0 
   NWR =      0 
   PWR =      0 
   LPDIBL1 =      0 
   NPDIBL1 =      0 
   PPDIBL1 =      0 
   LPDIBL2 =      0 
   NPDIBL2 =      0 
   PPDIBL2 =      0 
   LDROUT =      0 
   NDROUT =      0 
   PDROUT =      0 
   LPVAG =      0 
   NPVAG =      0 
   PPVAG =      0 
   LAIGBINV =      0 
   NAIGBINV =      0 
   PAIGBINV =      0 
   LBIGBINV =      0 
   NBIGBINV =      0 
   PBIGBINV =      0 
   LCIGBINV =      0 
   NCIGBINV =      0 
   PCIGBINV =      0 
   LEIGBINV =      0 
   NEIGBINV =      0 
   PEIGBINV =      0 
   LNIGBINV =      0 
   NNIGBINV =      0 
   PNIGBINV =      0 
   LAIGC =      0 
   NAIGC =      0 
   PAIGC =      0 
   LBIGC =      0 
   NBIGC =      0 
   PBIGC =      0 
   LCIGC =      0 
   NCIGC =      0 
   PCIGC =      0 
   LNIGC =      0 
   NNIGC =      0 
   PNIGC =      0 
   LAIGS =      0 
   NAIGS =      0 
   PAIGS =      0 
   LBIGS =      0 
   NBIGS =      0 
   PBIGS =      0 
   LCIGS =      0 
   NCIGS =      0 
   PCIGS =      0 
   LAIGD =      0 
   NAIGD =      0 
   PAIGD =      0 
   LBIGD =      0 
   NBIGD =      0 
   PBIGD =      0 
   LCIGD =      0 
   NCIGD =      0 
   PCIGD =      0 
   LPOXEDGE =      0 
   NPOXEDGE =      0 
   PPOXEDGE =      0 
   LAGIDL =      0 
   NAGIDL =      0 
   PAGIDL =      0 
   LBGIDL =      0 
   NBGIDL =      0 
   PBGIDL =      0 
   LEGIDL =      0 
   NEGIDL =      0 
   PEGIDL =      0 
   LAGISL =      0 
   NAGISL =      0 
   PAGISL =      0 
   LBGISL =      0 
   NBGISL =      0 
   PBGISL =      0 
   LEGISL =      0 
   NEGISL =      0 
   PEGISL =      0 
   LALPHA0 =      0 
   NALPHA0 =      0 
   PALPHA0 =      0 
   LALPHA1 =      0 
   NALPHA1 =      0 
   PALPHA1 =      0 
   LBETA0 =      0 
   NBETA0 =      0 
   PBETA0 =      0 
   LALPHAII =      0 
   NALPHAII =      0 
   PALPHAII =      0 
   LBETAII0 =      0 
   NBETAII0 =      0 
   PBETAII0 =      0 
   LBETAII1 =      0 
   NBETAII1 =      0 
   PBETAII1 =      0 
   LBETAII2 =      0 
   NBETAII2 =      0 
   PBETAII2 =      0 
   LESATII =      0 
   NESATII =      0 
   PESATII =      0 
   LLII =      0 
   NLII =      0 
   PLII =      0 
   LSII0 =      0 
   NSII0 =      0 
   PSII0 =      0 
   LSII1 =      0 
   NSII1 =      0 
   PSII1 =      0 
   LSII2 =      0 
   NSII2 =      0 
   PSII2 =      0 
   LSIID =      0 
   NSIID =      0 
   PSIID =      0 
   LCFS =      0 
   NCFS =      0 
   PCFS =      0 
   LCFD =      0 
   NCFD =      0 
   PCFD =      0 
   LCOVS =      0 
   NCOVS =      0 
   PCOVS =      0 
   LCOVD =      0 
   NCOVD =      0 
   PCOVD =      0 
   LCGSL =      0 
   NCGSL =      0 
   PCGSL =      0 
   LCGDL =      0 
   NCGDL =      0 
   PCGDL =      0 
   LCKAPPAS =      0 
   NCKAPPAS =      0 
   PCKAPPAS =      0 
   LCKAPPAD =      0 
   NCKAPPAD =      0 
   PCKAPPAD =      0 
   LCGBL =      0 
   NCGBL =      0 
   PCGBL =      0 
   LCKAPPAB =      0 
   NCKAPPAB =      0 
   PCKAPPAB =      0 
   LNTGEN =      0 
   NNTGEN =      0 
   PNTGEN =      0 
   LAIGEN =      0 
   NAIGEN =      0 
   PAIGEN =      0 
   LBIGEN =      0 
   NBIGEN =      0 
   PBIGEN =      0 
   LXRCRG1 =      0 
   NXRCRG1 =      0 
   PXRCRG1 =      0 
   LXRCRG2 =      0 
   NXRCRG2 =      0 
   PXRCRG2 =      0 
   LINTNOI =      0 
   NINTNOI =      0 
   PINTNOI =      0 
   LUTE =      0 
   NUTE =      0 
   PUTE =      0 
   LUTL =      0 
   NUTL =      0 
   PUTL =      0 
   LUA1 =      0 
   NUA1 =      0 
   PUA1 =      0 
   LUD1 =      0 
   NUD1 =      0 
   PUD1 =      0 
   LUCSTE =      0 
   NUCSTE =      0 
   PUCSTE =      0 
   LPTWGT =      0 
   NPTWGT =      0 
   PPTWGT =      0 
   LAT =      0 
   NAT =      0 
   PAT =      0 
   LSTTHETASAT =      0 
   NSTTHETASAT =      0 
   PSTTHETASAT =      0 
   LPRT =      0 
   NPRT =      0 
   PPRT =      0 
   LIIT =      0 
   NIIT =      0 
   PIIT =      0 
   LTII =      0 
   NTII =      0 
   PTII =      0 
   LTGIDL =      0 
   NTGIDL =      0 
   PTGIDL =      0 
   LIGT =      0 
   NIGT =      0 
   PIGT =      0 
   L = 1.1e-08 m
   D =  4e-08 m
   TFIN = 6.5e-09 m
   FPITCH = 2.2e-08 m
   NF = 1 
   NFIN = 1 
   NGCON = 1 
   ASEO =      0 m^2
   ADEO =      0 m^2
   PSEO =      0 m
   PDEO =      0 m
   ASEJ =      0 m^2
   ADEJ =      0 m^2
   PSEJ =      0 m
   PDEJ =      0 m
   CGSP =      0 F
   CGDP =      0 F
   CDSP =      0 F
   NRS =      0 
   NRD =      0 
   LRSD = 1.1e-08 m
   XL =      0 m
   DELVTRAND =      0 
   U0MULT =      1 
   IDS0MULT =      1 
   Lmin =  1e-08 m
   Lmax =  3e-08 m
   NFINmin = 0 
   NFINmax = 1 
   LVSAT1 =      0 
   NVSAT1 =      0 
   PVSAT1 =      0 
   LETAMOB =      0 
   NETAMOB =      0 
   PETAMOB =      0 
   LPCLMG =      0 
   NPCLMG =      0 
   PPCLMG =      0 
   LVASAT =      0 
   NVASAT =      0 
   PVASAT =      0 
   LAIGBACC =      0 
   NAIGBACC =      0 
   PAIGBACC =      0 
   LBIGBACC =      0 
   NBIGBACC =      0 
   PBIGBACC =      0 
   LCIGBACC =      0 
   NCIGBACC =      0 
   PCIGBACC =      0 
   LNIGBACC =      0 
   NNIGBACC =      0 
   PNIGBACC =      0 
 Model Name: nfet 
 BSIM-MG BULK Model(Level72)
   VERSION = 105.03  
   DEVTYPE = 1 
   BULKMOD = 1  
   COREMOD = 0 
   GEOMOD = 1 
   RDSMOD = 1 
   IGCMOD = 1 
   IGBMOD = 1 
   GIDLMOD = 0 
   IIMOD = 0 
   NQSMOD = 0 
   SHMOD = 0 
   RGATEMOD = 0 
   RGEOMOD = 1 
   CGEOMOD = 2 
   CAPMOD = 0 
   LINT = -2.5e-10 m
   LL =      0 m^(LLN+1)
   LLN =      1 
   DLC =      0 m
   DLBIN =      0 
   LLC =      0 m^(LLN+1)
   EOT = 8.4e-10 m
   TOXP = 1.15e-09 m
   EOTBOX = 1.4e-07 m
   HFIN = 1.8e-08 m
   FECH =      1 
   DELTAW =      0 m
   FECHCV =      1 
   DELTAWCV =      0 m
   NBODY =  1e+22 m^-3
   NSD =  3e+26 m^-3
   PHIG =  4.614 eV
   EPSROX =    3.9 
   EPSRSUB =   11.9 
   EASUB =   4.05 eV
   NI0SUB = 1.1e+16 m^-3
   BG0SUB =   1.12 eV
   NC0SUB = 2.86e+25 m^-3
   NGATE =      0 m^-3
   CIT = 1.3e-05 F/m^2
   CDSC = 0.0252 F/m^2
   CDSCD =  0.007 F/m^2
   CDSCDR =  0.007 
   DVT0 =   0.01 
   DVT1 =   0.69 
   PHIN =   0.05 V
   ETA0 =   0.39 
   ETA0R =   0.39 
   DSUB =    0.9 
   K1RSCE =      0 V^1/2
   LPE0 =  5e-09 m
   DVTSHIFT =      0 
   QMFACTOR =      0 
   QMTCENIV =      0 
   QMTCENCV =      0 
   AQMTCEN =      0 
   BQMTCEN = 1.2e-08 
   ETAQM =   0.54 
   QM0 = 0.001143 
   PQM =   0.66 
   QM0ACC =  0.001 
   PQMACC =   0.66 
   VSAT = 1.6e+05 
   AVSAT =      0 
   BVSAT =  1e-07 
   VSAT1 = 1.6e+05 
   AVSAT1 =      0 
   BVSAT1 =  1e-07 
   DELTAVSAT =      1 
   KSATIV =    0.8 
   MEXP =      3 
   AMEXP =      0 
   BMEXP =      1 
   PTWG =      0 
   APTWG =      0 
   BPTWG =  1e-07 
   AT = -0.00156 
   TMEXP =      0 
   PTWGT =  0.004 
   U0 =  0.065 
   ETAMOB =      2 
   UP =      0 
   LPA =      1 
   UA =    0.3 
   AUA =      0 
   BUA =  1e-07 
   EU =    1.8 
   AEU =      0 
   BEU =  1e-07 
   UD =      0 
   AUD =      0 
   BUD =  5e-08 
   UCS =      0 
   UTE =      0 
   UTL = -0.0015 
   UA1 = 0.001032 
   UD1 =      0 
   UCSTE = -0.00478 
   RDSWMIN =      0 
   RDSW =    100 
   ARDSW =      0 
   BRDSW =  1e-07 
   RSWMIN =      0 
   RSW =      0 
   ARSW =      0 
   BRSW =  1e-07 
   RDWMIN =      0 
   RDW =      0 
   ARDW =      0 
   BRDW =  1e-07 
   PRWG =      0 
   WR =      1 
   PRT =  0.001 
   PDIBL1 =    1.3 
   PDIBL2 = 0.0002 
   DROUT =   1.06 
   PVAG =      1 
   PCLM =    0.2 
   APCLM =      0 
   BPCLM =  1e-07 
   PCLMG =      0 
   VASAT =    0.6 
   PCLMCV =  0.013 
   PCLMGCV =      0 
   VASATCV =    0.2 
   RGEXT =      0 ohm
   RGFIN =  0.001 ohm
   RSHS =      0 ohm
   RSHD =      0 ohm
   HEPI =  8e-09 m
   TSILI =  7e-09 m
   RHOC =  4e-13 ohm/m^2
   RHORSD =      1 ohm/m
   RHOEXT =      1 ohm/m
   CRATIO =    0.5 
   DELTAPRSD =      0 m
   SDTERM = 0 
   LSP = 2.2e-09 m
   LDG =  2e-09 m
   EPSRSP =    3.9 
   TGATE = 7.5e-09 m
   TMASK =      0 m
   ASILIEND =      0 m^2
   ARSDEND =      0 m^2
   PRSDEND =      0 m
   NSDE =  9e+25 m^-3
   RGEOA =      1 
   RGEOB =      0 m^-1
   RGEOC =      0 m^-1
   RGEOD =      0 m^-1
   RGEOE =      0 m^-1
   CGEOA =      1 
   CGEOB =      0 m^-1
   CGEOC =      0 m^-1
   CGEOD =      0 m^-1
   CGEOE =      1 
   AIGBINV = 0.0111 (Fs^2/g)^0.5m^-1
   BIGBINV =   0.03 (Fs^2/g)^0.5m^-1
   CIGBINV =  0.006 V^-1
   EIGBINV =    1.1 V
   NIGBINV =    1.2 
   AIGBACC = 0.0149 
   BIGBACC = 0.000949 
   CIGBACC =  0.075 
   NIGBACC =      3 
   AIGC = 0.0136 (Fs^2/g)^0.5m^-1
   BIGC = 0.00171 (Fs^2/g)^0.5m^-1V^-1
   CIGC =  0.075 V^-1
   NIGC =      1 
   DLCIGS =      0 m
   AIGS = 0.0136 (Fs^2/g)^0.5m^-1
   BIGS = 0.00171 (Fs^2/g)^0.5m^-1V^-1
   CIGS =  0.075 V^-1
   DLCIGD =      0 m
   AIGD = 0.0136 (Fs^2/g)^0.5m^-1
   BIGD = 0.00171 (Fs^2/g)^0.5m^-1V^-1
   CIGD =  0.075 V^-1
   POXEDGE =      1 
   AGIDL = 5.729e-12 ohm^-1
   BGIDL =  3e+08 V/m
   EGIDL =    0.1 V
   AGISL = 5.729e-12 ohm^-1
   BGISL =  3e+08 V/m
   EGISL =    0.1 V
   ALPHA0 =      0 mV^-1
   ALPHA1 =      0 V^-1
   BETA0 =     30 V^-1
   ALPHAII =      0 
   BETAII0 =      0 V^-1
   BETAII1 =      0 
   BETAII2 =    0.1 V
   ESATII =  1e+07 V/m
   LII =  5e-10 V/m
   SII0 =    0.5 V^-1
   SII1 =    0.1 
   SII2 =      0 V
   SIID =      0 V
   EOTACC = 8.4e-10 m
   DELVFBACC =      0 V
   CFS = 2.56e-11 F/m
   CFD = 2.65e-11 F/m
   COVS = 2.5e-11 F/m
   COVD = 2.5e-11 F/m
   CGSO =      0 F/m
   CGDO =      0 F/m
   CGSL =      0 F/m
   CGDL =      0 F/m
   CKAPPAS =    0.6 V
   CKAPPAD =    0.6 V
   CGBO =      0 F/m
   CGBL =      0 F/m
   CKAPPAB =    0.6 V
   CSDESW =      0 F/m
   CJS = 0.0005 F/m^2
   CJD = 0.0005 F/m^2
   CJSWS =  5e-10 F/m
   CJSWD =  5e-10 F/m
   CJSWGS =      0 F/m
   CJSWGD =      0 F/m
   PBS =      1 V
   PBD =      1 V
   PBSWS =      1 V
   PBSWD =      1 V
   PBSWGS =      1 V
   PBSWGD =      1 V
   MJS, =    0.5 
   MJD =    0.5 
   MJSWS =   0.33 
   MJSWD =   0.33 
   MJSWGS =   0.33 
   MJSWGD =   0.33 
   SJS =      0 
   SJD =      0 
   SJSWS =      0 
   SJSWD =      0 
   SJSWGS =      0 
   SJSWGD =      0 
   MJS2 =  0.125 
   MJD2 =  0.125 
   MJSWS2 =   0.33 
   MJSWD2 =   0.33 
   MJSWGS2 =   0.33 
   MJSWGD2 =   0.33 
   JSS = 0.0001 A/m^2
   JSD = 0.0001 A/m^2
   JSWS =      0 A/m
   JSWD =      0 A/m
   JSWGS =      0 A/m
   JSWGD =      0 A/m
   NJS =      1 
   NJD =      1 
   IJTHSFWD =    0.1 A
   IJTHDFWD =    0.1 A
   IJTHSREV =    0.1 A
   IJTHDREV =    0.1 A
   BVS =     10 V
   BVD =     10 V
   XJBVS =      1 
   XJBVD =      1 
   JTSS =      0 A/m^2
   JTSD =      0 A/m^2
   JTSSWS =      0 A/m
   JTSSWD =      0 A/m
   JTSSWGS =      0 A/m
   JTSSWGD =      0 A/m
   JTWEFF =      0 m
   NJTS =     20 
   NJTSD =     20 
   NJTSSW =     20 
   NJTSSWD =     20 
   NJTSSWG =     20 
   NJTSSWGD =     20 
   VTSS =     10 V
   VTSD =     10 V
   VTSSWS =     10 V
   VTSSWD =     10 V
   VTSSWGS =     10 V
   VTSSWGD =     10 V
   LINTIGEN =      0 m
   NTGEN =      1 
   AIGEN =      0 m^-3V^-1
   BIGEN =      0 m^-3V^-3
   XRCRG1 =     12 
   XRCRG2 =      1 
   NSEG = 5 
   EF =      1 
   EM = 4.1e+07 V/m
   NOIA = 6.25e+39 eV^-1s^1-EFm^-3
   NOIB = 3.125e+24 eV^-1s^1-EFm^-1
   NOIC = 8.75e+07 eV^-1s^1-EFm
   NTNOI =      1 
   TNOM =  300.1 K
   TBGASUB = 0.000702 eV/K
   TBGBSUB =   1108 K
   KT1 =      0 V
   KT1L =      0 Vm
   IIT =   -0.5 
   TII =      0 
   TGIDL = -0.0003 K^-1
   IGT =    2.5 
   TCJ =      0 K^-1
   TCJSW =      0 K^-1
   TCJSWG =      0 K^-1
   TPB =      0 K^-1
   TPBSW =      0 K^-1
   TPBSWG =      0 K^-1
   XTIS =      3 
   XTID =      3 
   XTSS =   0.02 
   XTSD =   0.02 
   XTSSWS =   0.02 
   XTSSWD =   0.02 
   XTSSWGS =   0.02 
   XTSSWGD =   0.02 
   TNJTS =      0 
   TNJTSD =      0 
   TNJTSSW =      0 
   TNJTSSWD =      0 
   TNJTSSWG =      0 
   TNJTSSWGD =      0 
   RTH0 =   0.01 ohm
   CTH0 =  1e-05 F
   WTH0 =      0 m
   LNBODY =      0 
   NNBODY =      0 
   PNBODY =      0 
   LPHIG =      0 
   NPHIG =      0 
   PPHIG =      0 
   LNGATE =      0 
   NNGATE =      0 
   PNGATE =      0 
   LCIT =      0 
   NCIT =      0 
   PCIT =      0 
   LCDSC =      0 
   NCDSC =      0 
   PCDSC =      0 
   LCDSCD =      0 
   NCDSCD =      0 
   PCDSCD =      0 
   LCDSCDR =      0 
   NCDSCDR =      0 
   PCDSCDR =      0 
   LDVT0 =      0 
   NDVT0 =      0 
   PDVT0 =      0 
   LDVT1 =      0 
   NDVT1 =      0 
   PDVT1 =      0 
   LPHIN =      0 
   NPHIN =      0 
   PPHIN =      0 
   LETA0 =      0 
   NETA0 =      0 
   PETA0 =      0 
   LETA0R =      0 
   NETA0R =      0 
   PETA0R =      0 
   LDSUB =      0 
   NDSUB =      0 
   PDSUB =      0 
   LK1RSCE =      0 
   NK1RSCE =      0 
   PK1RSCE =      0 
   LLPE0 =      0 
   NLPE0 =      0 
   PLPE0 =      0 
   LQMFACTOR =      0 
   NQMFACTOR =      0 
   PQMFACTOR =      0 
   LQMTCENIV =      0 
   NQMTCENIV =      0 
   PQMTCENIV =      0 
   LQMTCENCV =      0 
   NQMTCENCV =      0 
   PQMTCENCV =      0 
   LVSAT =      0 
   NVSAT =      0 
   PVSAT =      0 
   LKSATIV =      0 
   NKSATIV =      0 
   PKSATIV =      0 
   LMEXP =      0 
   NMEXP =      0 
   PMEXP =      0 
   LPTWG =      0 
   NPTWG =      0 
   PPTWG =      0 
   LTHETASAT =      0 
   NTHETASAT =      0 
   PTHETASAT =      0 
   LU0 =      0 
   NU0 =      0 
   PU0 =      0 
   LUP =      0 
   NUP =      0 
   PUP =      0 
   LUA =      0 
   NUA =      0 
   PUA =      0 
   LEU =      0 
   NEU =      0 
   PEU =      0 
   LUD =      0 
   NUD =      0 
   PUD =      0 
   LUCS =      0 
   NUCS =      0 
   PUCS =      0 
   LPCLM =      0 
   NPCLM =      0 
   PPCLM =      0 
   LPCLMCV =      0 
   NPCLMCV =      0 
   PPCLMCV =      0 
   LRDSW =      0 
   NRDSW =      0 
   PRDSW =      0 
   LRSW =      0 
   NRSW =      0 
   PRSW =      0 
   LRDW =      0 
   NRDW =      0 
   PRDW =      0 
   LPRWG =      0 
   NPRWG =      0 
   PPRWG =      0 
   LWR =      0 
   NWR =      0 
   PWR =      0 
   LPDIBL1 =      0 
   NPDIBL1 =      0 
   PPDIBL1 =      0 
   LPDIBL2 =      0 
   NPDIBL2 =      0 
   PPDIBL2 =      0 
   LDROUT =      0 
   NDROUT =      0 
   PDROUT =      0 
   LPVAG =      0 
   NPVAG =      0 
   PPVAG =      0 
   LAIGBINV =      0 
   NAIGBINV =      0 
   PAIGBINV =      0 
   LBIGBINV =      0 
   NBIGBINV =      0 
   PBIGBINV =      0 
   LCIGBINV =      0 
   NCIGBINV =      0 
   PCIGBINV =      0 
   LEIGBINV =      0 
   NEIGBINV =      0 
   PEIGBINV =      0 
   LNIGBINV =      0 
   NNIGBINV =      0 
   PNIGBINV =      0 
   LAIGC =      0 
   NAIGC =      0 
   PAIGC =      0 
   LBIGC =      0 
   NBIGC =      0 
   PBIGC =      0 
   LCIGC =      0 
   NCIGC =      0 
   PCIGC =      0 
   LNIGC =      0 
   NNIGC =      0 
   PNIGC =      0 
   LAIGS =      0 
   NAIGS =      0 
   PAIGS =      0 
   LBIGS =      0 
   NBIGS =      0 
   PBIGS =      0 
   LCIGS =      0 
   NCIGS =      0 
   PCIGS =      0 
   LAIGD =      0 
   NAIGD =      0 
   PAIGD =      0 
   LBIGD =      0 
   NBIGD =      0 
   PBIGD =      0 
   LCIGD =      0 
   NCIGD =      0 
   PCIGD =      0 
   LPOXEDGE =      0 
   NPOXEDGE =      0 
   PPOXEDGE =      0 
   LAGIDL =      0 
   NAGIDL =      0 
   PAGIDL =      0 
   LBGIDL =      0 
   NBGIDL =      0 
   PBGIDL =      0 
   LEGIDL =      0 
   NEGIDL =      0 
   PEGIDL =      0 
   LAGISL =      0 
   NAGISL =      0 
   PAGISL =      0 
   LBGISL =      0 
   NBGISL =      0 
   PBGISL =      0 
   LEGISL =      0 
   NEGISL =      0 
   PEGISL =      0 
   LALPHA0 =      0 
   NALPHA0 =      0 
   PALPHA0 =      0 
   LALPHA1 =      0 
   NALPHA1 =      0 
   PALPHA1 =      0 
   LBETA0 =      0 
   NBETA0 =      0 
   PBETA0 =      0 
   LALPHAII =      0 
   NALPHAII =      0 
   PALPHAII =      0 
   LBETAII0 =      0 
   NBETAII0 =      0 
   PBETAII0 =      0 
   LBETAII1 =      0 
   NBETAII1 =      0 
   PBETAII1 =      0 
   LBETAII2 =      0 
   NBETAII2 =      0 
   PBETAII2 =      0 
   LESATII =      0 
   NESATII =      0 
   PESATII =      0 
   LLII =      0 
   NLII =      0 
   PLII =      0 
   LSII0 =      0 
   NSII0 =      0 
   PSII0 =      0 
   LSII1 =      0 
   NSII1 =      0 
   PSII1 =      0 
   LSII2 =      0 
   NSII2 =      0 
   PSII2 =      0 
   LSIID =      0 
   NSIID =      0 
   PSIID =      0 
   LCFS =      0 
   NCFS =      0 
   PCFS =      0 
   LCFD =      0 
   NCFD =      0 
   PCFD =      0 
   LCOVS =      0 
   NCOVS =      0 
   PCOVS =      0 
   LCOVD =      0 
   NCOVD =      0 
   PCOVD =      0 
   LCGSL =      0 
   NCGSL =      0 
   PCGSL =      0 
   LCGDL =      0 
   NCGDL =      0 
   PCGDL =      0 
   LCKAPPAS =      0 
   NCKAPPAS =      0 
   PCKAPPAS =      0 
   LCKAPPAD =      0 
   NCKAPPAD =      0 
   PCKAPPAD =      0 
   LCGBL =      0 
   NCGBL =      0 
   PCGBL =      0 
   LCKAPPAB =      0 
   NCKAPPAB =      0 
   PCKAPPAB =      0 
   LNTGEN =      0 
   NNTGEN =      0 
   PNTGEN =      0 
   LAIGEN =      0 
   NAIGEN =      0 
   PAIGEN =      0 
   LBIGEN =      0 
   NBIGEN =      0 
   PBIGEN =      0 
   LXRCRG1 =      0 
   NXRCRG1 =      0 
   PXRCRG1 =      0 
   LXRCRG2 =      0 
   NXRCRG2 =      0 
   PXRCRG2 =      0 
   LINTNOI =      0 
   NINTNOI =      0 
   PINTNOI =      0 
   LUTE =      0 
   NUTE =      0 
   PUTE =      0 
   LUTL =      0 
   NUTL =      0 
   PUTL =      0 
   LUA1 =      0 
   NUA1 =      0 
   PUA1 =      0 
   LUD1 =      0 
   NUD1 =      0 
   PUD1 =      0 
   LUCSTE =      0 
   NUCSTE =      0 
   PUCSTE =      0 
   LPTWGT =      0 
   NPTWGT =      0 
   PPTWGT =      0 
   LAT =      0 
   NAT =      0 
   PAT =      0 
   LSTTHETASAT =      0 
   NSTTHETASAT =      0 
   PSTTHETASAT =      0 
   LPRT =      0 
   NPRT =      0 
   PPRT =      0 
   LIIT =      0 
   NIIT =      0 
   PIIT =      0 
   LTII =      0 
   NTII =      0 
   PTII =      0 
   LTGIDL =      0 
   NTGIDL =      0 
   PTGIDL =      0 
   LIGT =      0 
   NIGT =      0 
   PIGT =      0 
   L = 1.1e-08 m
   D =  4e-08 m
   TFIN = 6.5e-09 m
   FPITCH = 2.2e-08 m
   NF = 1 
   NFIN = 1 
   NGCON = 1 
   ASEO =      0 m^2
   ADEO =      0 m^2
   PSEO =      0 m
   PDEO =      0 m
   ASEJ =      0 m^2
   ADEJ =      0 m^2
   PSEJ =      0 m
   PDEJ =      0 m
   CGSP =      0 F
   CGDP =      0 F
   CDSP =      0 F
   NRS =      0 
   NRD =      0 
   LRSD = 1.1e-08 m
   XL =      0 m
   DELVTRAND =      0 
   U0MULT =      1 
   IDS0MULT =      1 
   Lmin =  1e-08 m
   Lmax =  3e-08 m
   NFINmin = 0 
   NFINmax = 1 
   LVSAT1 =      0 
   NVSAT1 =      0 
   PVSAT1 =      0 
   LETAMOB =      0 
   NETAMOB =      0 
   PETAMOB =      0 
   LPCLMG =      0 
   NPCLMG =      0 
   PPCLMG =      0 
   LVASAT =      0 
   NVASAT =      0 
   PVASAT =      0 
   LAIGBACC =      0 
   NAIGBACC =      0 
   PAIGBACC =      0 
   LBIGBACC =      0 
   NBIGBACC =      0 
   PBIGBACC =      0 
   LCIGBACC =      0 
   NCIGBACC =      0 
   PCIGBACC =      0 
   LNIGBACC =      0 
   NNIGBACC =      0 
   PNIGBACC =      0 
  **info** (ptm7lstp.sp:15) DC voltage reset to initial transient source value              in source        0:vin_0               new dc=  0.7000D+00
  
      
 **info** set option symb=1 internally to help for convergence.
 *****************************************************************
 ******  option summary
 ******
 runlvl  = 3         bypass  = 2         
  Opening plot unit= 15
 file=ptm7lstp.pa0                                                             

1****** HSPICE -- F-2011.09-SP2 64-BIT (Feb 27 2012) linux ******               
 ******  
 $ netlist of inverter

  ******  operating point information tnom=  25.000 temp=  25.000 *****
 ***** operating point status is voltage   simulation time is   0.000e+00
     node    =voltage       node    =voltage       node    =voltage

 + 0:inb_0   = 7.000e-01  0:inb_1   = 7.000e-01  0:outb_00 = 7.000e-01
 + 0:outb_10 = 7.000e-01  0:outin_00= 1.363e-05  0:outin_01= 1.363e-05
 + 0:outin_10= 7.000e-01  0:outin_11= 7.000e-01  0:outin_20= 1.363e-05
 + 0:outin_21= 1.363e-05  0:vdd     = 7.000e-01

 ******  
 $ netlist of inverter

  ******  transient analysis tnom=  25.000 temp=  25.000 *****
 model_uut_peak_power00= 7.1125e-06    at= 1.0830e-09
             from= 0.0000e+00    to= 4.0000e-09
 model_uut_avg_power00= 5.2769e-08  from= 0.0000e+00     to= 4.0000e-09
 model_uut_peak_power10= 1.1254e-05    at= 3.0885e-09
             from= 0.0000e+00    to= 4.0000e-09
 model_uut_avg_power10= 5.4455e-08  from= 0.0000e+00     to= 4.0000e-09
 model_uut_peak_power01= 6.5446e-06    at= 2.0859e-09
             from= 0.0000e+00    to= 4.0000e-09
 model_uut_avg_power01= 2.9192e-08  from= 0.0000e+00     to= 4.0000e-09
 model_uut_peak_power11= 1.0092e-05    at= 2.0859e-09
             from= 0.0000e+00    to= 4.0000e-09
 model_uut_avg_power11= 3.0144e-08  from= 0.0000e+00     to= 4.0000e-09
 uut_peak_power= 1.6640e-05    at= 2.0859e-09
             from= 0.0000e+00    to= 4.0000e-09
 uut_avg_power= 1.6656e-07  from= 0.0000e+00     to= 4.0000e-09
 source_peak_power= 2.4881e-05    at= 2.7260e-11
             from= 0.0000e+00    to= 4.0000e-09
 source_avg_power= 2.7737e-07  from= 0.0000e+00     to= 4.0000e-09
 trf_delay_001= 1.7684e-12  targ= 3.4005e-11   trig= 3.2237e-11
 tfr_delay_001= 4.6803e-12  targ= 1.0852e-09   trig= 1.0806e-09
 trf_delay_002= 4.9579e-12  targ= 2.0351e-09   trig= 2.0301e-09
 tfr_delay_002= 4.4010e-12  targ= 3.0862e-09   trig= 3.0818e-09
 trf_delay_101= 4.0139e-12  targ= 1.0893e-09   trig= 1.0852e-09
 tfr_delay_101= 3.8685e-12  targ= 3.7873e-11   trig= 3.4005e-11
 trf_delay_102= 3.2984e-12  targ= 3.0895e-09   trig= 3.0862e-09
 tfr_delay_102= 3.4702e-12  targ= 2.0386e-09   trig= 2.0351e-09
 trf_delay_011= 1.7684e-12  targ= 3.4005e-11   trig= 3.2237e-11
 tfr_delay_011= 4.7298e-12  targ= 2.0865e-09   trig= 2.0818e-09
 trf_delay_111= 1.9567e-12  targ= 2.0884e-09   trig= 2.0865e-09
 tfr_delay_111= 3.8685e-12  targ= 3.7873e-11   trig= 3.4005e-11
x

        time    voltage      voltage    
                 outin_00     outin_10  
  0.0000e+00    1.363e-05    7.000e-01  
  1.0000e-11   -1.594e-03    7.000e-01  
  2.0000e-11    2.968e-02    6.791e-01  
  3.0000e-11    2.684e-01    4.758e-01  
  4.0000e-11    6.029e-01    1.390e-01  
  5.0000e-11    6.972e-01   -2.778e-03  
  6.0000e-11    7.000e-01    3.733e-06  
  7.0000e-11    7.000e-01    2.390e-06  
  8.0000e-11    7.000e-01   -2.588e-06  
  9.0000e-11    7.000e-01    2.052e-05  
  1.0000e-10    7.000e-01    4.363e-05  
  1.1000e-10    7.000e-01    3.326e-05  
  1.2000e-10    7.000e-01    2.139e-05  
  1.3000e-10    7.000e-01    9.511e-06  
  1.4000e-10    7.000e-01   -2.365e-06  
  1.5000e-10    7.000e-01   -1.424e-05  
  1.6000e-10    7.000e-01   -1.290e-05  
  1.7000e-10    7.000e-01   -7.703e-06  
  1.8000e-10    7.000e-01   -2.510e-06  
  1.9000e-10    7.000e-01    2.683e-06  
  2.0000e-10    7.000e-01    7.877e-06  
  2.1000e-10    7.000e-01    1.307e-05  
  2.2000e-10    7.000e-01    1.826e-05  
  2.3000e-10    7.000e-01    2.346e-05  
  2.4000e-10    7.000e-01    2.865e-05  
  2.5000e-10    7.000e-01    3.384e-05  
  2.6000e-10    7.000e-01    3.904e-05  
  2.7000e-10    7.000e-01    4.389e-05  
  2.8000e-10    7.000e-01    4.086e-05  
  2.9000e-10    7.000e-01    3.783e-05  
  3.0000e-10    7.000e-01    3.480e-05  
  3.1000e-10    7.000e-01    3.176e-05  
  3.2000e-10    7.000e-01    2.873e-05  
  3.3000e-10    7.000e-01    2.570e-05  
  3.4000e-10    7.000e-01    2.267e-05  
  3.5000e-10    7.000e-01    1.964e-05  
  3.6000e-10    7.000e-01    1.660e-05  
  3.7000e-10    7.000e-01    1.357e-05  
  3.8000e-10    7.000e-01    1.054e-05  
  3.9000e-10    7.000e-01    7.507e-06  
  4.0000e-10    7.000e-01    4.475e-06  
  4.1000e-10    7.000e-01    1.443e-06  
  4.2000e-10    7.000e-01   -1.589e-06  
  4.3000e-10    7.000e-01   -4.621e-06  
  4.4000e-10    7.000e-01   -7.653e-06  
  4.5000e-10    7.000e-01   -1.069e-05  
  4.6000e-10    7.000e-01   -1.372e-05  
  4.7000e-10    7.000e-01   -1.650e-05  
  4.8000e-10    7.000e-01   -1.348e-05  
  4.9000e-10    7.000e-01   -1.046e-05  
  5.0000e-10    7.000e-01   -7.437e-06  
  5.1000e-10    7.000e-01   -4.416e-06  
  5.2000e-10    7.000e-01   -1.395e-06  
  5.3000e-10    7.000e-01    1.627e-06  
  5.4000e-10    7.000e-01    4.648e-06  
  5.5000e-10    7.000e-01    7.669e-06  
  5.6000e-10    7.000e-01    1.069e-05  
  5.7000e-10    7.000e-01    1.371e-05  
  5.8000e-10    7.000e-01    1.673e-05  
  5.9000e-10    7.000e-01    1.975e-05  
  6.0000e-10    7.000e-01    2.278e-05  
  6.1000e-10    7.000e-01    2.580e-05  
  6.2000e-10    7.000e-01    2.882e-05  
  6.3000e-10    7.000e-01    3.184e-05  
  6.4000e-10    7.000e-01    3.486e-05  
  6.5000e-10    7.000e-01    3.788e-05  
  6.6000e-10    7.000e-01    4.090e-05  
  6.7000e-10    7.000e-01    4.368e-05  
  6.8000e-10    7.000e-01    4.067e-05  
  6.9000e-10    7.000e-01    3.766e-05  
  7.0000e-10    7.000e-01    3.465e-05  
  7.1000e-10    7.000e-01    3.163e-05  
  7.2000e-10    7.000e-01    2.862e-05  
  7.3000e-10    7.000e-01    2.561e-05  
  7.4000e-10    7.000e-01    2.260e-05  
  7.5000e-10    7.000e-01    1.959e-05  
  7.6000e-10    7.000e-01    1.658e-05  
  7.7000e-10    7.000e-01    1.357e-05  
  7.8000e-10    7.000e-01    1.056e-05  
  7.9000e-10    7.000e-01    7.551e-06  
  8.0000e-10    7.000e-01    4.540e-06  
  8.1000e-10    7.000e-01    1.529e-06  
  8.2000e-10    7.000e-01   -1.481e-06  
  8.3000e-10    7.000e-01   -4.492e-06  
  8.4000e-10    7.000e-01   -7.502e-06  
  8.5000e-10    7.000e-01   -1.051e-05  
  8.6000e-10    7.000e-01   -1.352e-05  
  8.7000e-10    7.000e-01   -1.627e-05  
  8.8000e-10    7.000e-01   -1.295e-05  
  8.9000e-10    7.000e-01   -9.624e-06  
  9.0000e-10    7.000e-01   -6.299e-06  
  9.1000e-10    7.000e-01   -2.974e-06  
  9.2000e-10    7.000e-01    0.000e+00  
  9.3000e-10    7.000e-01    3.676e-06  
  9.4000e-10    7.000e-01    7.001e-06  
  9.5000e-10    7.000e-01    1.033e-05  
  9.6000e-10    7.000e-01    1.365e-05  
  9.7000e-10    7.000e-01    1.698e-05  
  9.8000e-10    7.000e-01    2.030e-05  
  9.9000e-10    7.000e-01    2.363e-05  
  1.0000e-09    7.000e-01    2.695e-05  
  1.0100e-09    7.000e-01    3.028e-05  
  1.0200e-09    7.000e-01    3.360e-05  
  1.0300e-09    7.000e-01    3.693e-05  
  1.0400e-09    7.000e-01    4.025e-05  
  1.0500e-09    7.000e-01    4.358e-05  
  1.0600e-09    7.028e-01    1.168e-05  
  1.0700e-09    6.128e-01    5.861e-03  
  1.0800e-09    3.689e-01    5.869e-02  
  1.0900e-09    4.552e-02    5.977e-01  
  1.1000e-09    6.695e-04    6.962e-01  
  1.1100e-09    1.760e-05    7.000e-01  
  1.1200e-09    8.677e-06    7.000e-01  
  1.1300e-09    1.601e-05    7.000e-01  
  1.1400e-09    1.892e-05    7.000e-01  
  1.1500e-09    1.490e-05    7.000e-01  
  1.1600e-09    1.089e-05    7.000e-01  
  1.1700e-09    6.873e-06    7.000e-01  
  1.1800e-09    8.285e-06    7.000e-01  
  1.1900e-09    1.023e-05    7.000e-01  
  1.2000e-09    1.217e-05    7.000e-01  
  1.2100e-09    1.411e-05    7.000e-01  
  1.2200e-09    1.605e-05    7.000e-01  
  1.2300e-09    1.799e-05    7.000e-01  
  1.2400e-09    1.993e-05    7.000e-01  
  1.2500e-09    2.030e-05    7.000e-01  
  1.2600e-09    1.923e-05    7.000e-01  
  1.2700e-09    1.817e-05    7.000e-01  
  1.2800e-09    1.710e-05    7.000e-01  
  1.2900e-09    1.604e-05    7.000e-01  
  1.3000e-09    1.497e-05    7.000e-01  
  1.3100e-09    1.391e-05    7.000e-01  
  1.3200e-09    1.284e-05    7.000e-01  
  1.3300e-09    1.177e-05    7.000e-01  
  1.3400e-09    1.071e-05    7.000e-01  
  1.3500e-09    9.644e-06    7.000e-01  
  1.3600e-09    8.579e-06    7.000e-01  
  1.3700e-09    7.513e-06    7.000e-01  
  1.3800e-09    6.448e-06    7.000e-01  
  1.3900e-09    7.008e-06    7.000e-01  
  1.4000e-09    7.738e-06    7.000e-01  
  1.4100e-09    8.468e-06    7.000e-01  
  1.4200e-09    9.199e-06    7.000e-01  
  1.4300e-09    9.929e-06    7.000e-01  
  1.4400e-09    1.066e-05    7.000e-01  
  1.4500e-09    1.139e-05    7.000e-01  
  1.4600e-09    1.212e-05    7.000e-01  
  1.4700e-09    1.285e-05    7.000e-01  
  1.4800e-09    1.358e-05    7.000e-01  
  1.4900e-09    1.431e-05    7.000e-01  
  1.5000e-09    1.504e-05    7.000e-01  
  1.5100e-09    1.577e-05    7.000e-01  
  1.5200e-09    1.650e-05    7.000e-01  
  1.5300e-09    1.723e-05    7.000e-01  
  1.5400e-09    1.796e-05    7.000e-01  
  1.5500e-09    1.869e-05    7.000e-01  
  1.5600e-09    1.942e-05    7.000e-01  
  1.5700e-09    2.015e-05    7.000e-01  
  1.5800e-09    2.088e-05    7.000e-01  
  1.5900e-09    2.029e-05    7.000e-01  
  1.6000e-09    1.955e-05    7.000e-01  
  1.6100e-09    1.882e-05    7.000e-01  
  1.6200e-09    1.809e-05    7.000e-01  
  1.6300e-09    1.735e-05    7.000e-01  
  1.6400e-09    1.662e-05    7.000e-01  
  1.6500e-09    1.588e-05    7.000e-01  
  1.6600e-09    1.515e-05    7.000e-01  
  1.6700e-09    1.442e-05    7.000e-01  
  1.6800e-09    1.368e-05    7.000e-01  
  1.6900e-09    1.295e-05    7.000e-01  
  1.7000e-09    1.221e-05    7.000e-01  
  1.7100e-09    1.148e-05    7.000e-01  
  1.7200e-09    1.075e-05    7.000e-01  
  1.7300e-09    1.001e-05    7.000e-01  
  1.7400e-09    9.278e-06    7.000e-01  
  1.7500e-09    8.544e-06    7.000e-01  
  1.7600e-09    7.810e-06    7.000e-01  
  1.7700e-09    7.076e-06    7.000e-01  
  1.7800e-09    6.342e-06    7.000e-01  
  1.7900e-09    6.882e-06    7.000e-01  
  1.8000e-09    7.555e-06    7.000e-01  
  1.8100e-09    8.229e-06    7.000e-01  
  1.8200e-09    8.902e-06    7.000e-01  
  1.8300e-09    9.575e-06    7.000e-01  
  1.8400e-09    1.025e-05    7.000e-01  
  1.8500e-09    1.092e-05    7.000e-01  
  1.8600e-09    1.160e-05    7.000e-01  
  1.8700e-09    1.227e-05    7.000e-01  
  1.8800e-09    1.294e-05    7.000e-01  
  1.8900e-09    1.362e-05    7.000e-01  
  1.9000e-09    1.429e-05    7.000e-01  
  1.9100e-09    1.496e-05    7.000e-01  
  1.9200e-09    1.564e-05    7.000e-01  
  1.9300e-09    1.631e-05    7.000e-01  
  1.9400e-09    1.698e-05    7.000e-01  
  1.9500e-09    1.766e-05    7.000e-01  
  1.9600e-09    1.833e-05    7.000e-01  
  1.9700e-09    1.900e-05    7.000e-01  
  1.9800e-09    1.968e-05    7.000e-01  
  1.9900e-09    2.035e-05    7.000e-01  
  2.0000e-09    2.102e-05    7.000e-01  
  2.0100e-09    9.400e-02    6.994e-01  
  2.0200e-09    1.880e-01    6.987e-01  
  2.0300e-09    3.471e-01    6.186e-01  
  2.0400e-09    6.767e-01    2.113e-02  
  2.0500e-09    6.971e-01    1.824e-04  
  2.0600e-09    7.000e-01    1.304e-05  
  2.0700e-09    7.000e-01    1.187e-05  
  2.0800e-09    7.000e-01    1.511e-05  
  2.0900e-09    7.000e-01    7.850e-06  
  2.1000e-09    7.000e-01    1.235e-05  
  2.1100e-09    7.000e-01    1.398e-05  
  2.1200e-09    7.000e-01    1.398e-05  
  2.1300e-09    7.000e-01    1.402e-05  
  2.1400e-09    7.000e-01    1.400e-05  
  2.1500e-09    7.000e-01    1.398e-05  
  2.1600e-09    7.000e-01    1.396e-05  
  2.1700e-09    7.000e-01    1.395e-05  
  2.1800e-09    7.000e-01    1.396e-05  
  2.1900e-09    7.000e-01    1.397e-05  
  2.2000e-09    7.000e-01    1.398e-05  
  2.2100e-09    7.000e-01    1.399e-05  
  2.2200e-09    7.000e-01    1.400e-05  
  2.2300e-09    7.000e-01    1.401e-05  
  2.2400e-09    7.000e-01    1.402e-05  
  2.2500e-09    7.000e-01    1.402e-05  
  2.2600e-09    7.000e-01    1.401e-05  
  2.2700e-09    7.000e-01    1.401e-05  
  2.2800e-09    7.000e-01    1.400e-05  
  2.2900e-09    7.000e-01    1.400e-05  
  2.3000e-09    7.000e-01    1.399e-05  
  2.3100e-09    7.000e-01    1.399e-05  
  2.3200e-09    7.000e-01    1.399e-05  
  2.3300e-09    7.000e-01    1.398e-05  
  2.3400e-09    7.000e-01    1.398e-05  
  2.3500e-09    7.000e-01    1.397e-05  
  2.3600e-09    7.000e-01    1.397e-05  
  2.3700e-09    7.000e-01    1.396e-05  
  2.3800e-09    7.000e-01    1.396e-05  
  2.3900e-09    7.000e-01    1.395e-05  
  2.4000e-09    7.000e-01    1.395e-05  
  2.4100e-09    7.000e-01    1.395e-05  
  2.4200e-09    7.000e-01    1.396e-05  
  2.4300e-09    7.000e-01    1.396e-05  
  2.4400e-09    7.000e-01    1.396e-05  
  2.4500e-09    7.000e-01    1.397e-05  
  2.4600e-09    7.000e-01    1.397e-05  
  2.4700e-09    7.000e-01    1.397e-05  
  2.4800e-09    7.000e-01    1.398e-05  
  2.4900e-09    7.000e-01    1.398e-05  
  2.5000e-09    7.000e-01    1.399e-05  
  2.5100e-09    7.000e-01    1.399e-05  
  2.5200e-09    7.000e-01    1.399e-05  
  2.5300e-09    7.000e-01    1.400e-05  
  2.5400e-09    7.000e-01    1.400e-05  
  2.5500e-09    7.000e-01    1.400e-05  
  2.5600e-09    7.000e-01    1.401e-05  
  2.5700e-09    7.000e-01    1.401e-05  
  2.5800e-09    7.000e-01    1.402e-05  
  2.5900e-09    7.000e-01    1.402e-05  
  2.6000e-09    7.000e-01    1.402e-05  
  2.6100e-09    7.000e-01    1.402e-05  
  2.6200e-09    7.000e-01    1.402e-05  
  2.6300e-09    7.000e-01    1.401e-05  
  2.6400e-09    7.000e-01    1.401e-05  
  2.6500e-09    7.000e-01    1.400e-05  
  2.6600e-09    7.000e-01    1.400e-05  
  2.6700e-09    7.000e-01    1.400e-05  
  2.6800e-09    7.000e-01    1.399e-05  
  2.6900e-09    7.000e-01    1.399e-05  
  2.7000e-09    7.000e-01    1.399e-05  
  2.7100e-09    7.000e-01    1.398e-05  
  2.7200e-09    7.000e-01    1.398e-05  
  2.7300e-09    7.000e-01    1.397e-05  
  2.7400e-09    7.000e-01    1.397e-05  
  2.7500e-09    7.000e-01    1.397e-05  
  2.7600e-09    7.000e-01    1.396e-05  
  2.7700e-09    7.000e-01    1.396e-05  
  2.7800e-09    7.000e-01    1.396e-05  
  2.7900e-09    7.000e-01    1.395e-05  
  2.8000e-09    7.000e-01    1.395e-05  
  2.8100e-09    7.000e-01    1.395e-05  
  2.8200e-09    7.000e-01    1.396e-05  
  2.8300e-09    7.000e-01    1.396e-05  
  2.8400e-09    7.000e-01    1.396e-05  
  2.8500e-09    7.000e-01    1.397e-05  
  2.8600e-09    7.000e-01    1.397e-05  
  2.8700e-09    7.000e-01    1.397e-05  
  2.8800e-09    7.000e-01    1.398e-05  
  2.8900e-09    7.000e-01    1.398e-05  
  2.9000e-09    7.000e-01    1.399e-05  
  2.9100e-09    7.000e-01    1.399e-05  
  2.9200e-09    7.000e-01    1.399e-05  
  2.9300e-09    7.000e-01    1.400e-05  
  2.9400e-09    7.000e-01    1.400e-05  
  2.9500e-09    7.000e-01    1.400e-05  
  2.9600e-09    7.000e-01    1.401e-05  
  2.9700e-09    7.000e-01    1.401e-05  
  2.9800e-09    7.000e-01    1.402e-05  
  2.9900e-09    7.000e-01    1.402e-05  
  3.0000e-09    7.000e-01    1.402e-05  
  3.0100e-09    7.000e-01    1.401e-05  
  3.0200e-09    7.000e-01    1.399e-05  
  3.0300e-09    7.000e-01    1.398e-05  
  3.0400e-09    7.000e-01    1.396e-05  
  3.0500e-09    7.000e-01    1.395e-05  
  3.0600e-09    7.024e-01   -6.900e-06  
  3.0700e-09    6.799e-01   -6.645e-04  
  3.0800e-09    4.227e-01   -4.506e-04  
  3.0900e-09    2.556e-02    6.355e-01  
  3.1000e-09    2.471e-03    7.004e-01  
  3.1100e-09    1.328e-05    7.000e-01  
  3.1200e-09    1.432e-05    7.000e-01  
  3.1300e-09    1.388e-05    7.000e-01  
  3.1400e-09    1.345e-05    7.000e-01  
  3.1500e-09    1.327e-05    7.000e-01  
  3.1600e-09    1.347e-05    7.000e-01  
  3.1700e-09    1.367e-05    7.000e-01  
  3.1800e-09    1.386e-05    7.000e-01  
  3.1900e-09    1.406e-05    7.000e-01  
  3.2000e-09    1.426e-05    7.000e-01  
  3.2100e-09    1.423e-05    7.000e-01  
  3.2200e-09    1.415e-05    7.000e-01  
  3.2300e-09    1.407e-05    7.000e-01  
  3.2400e-09    1.399e-05    7.000e-01  
  3.2500e-09    1.391e-05    7.000e-01  
  3.2600e-09    1.383e-05    7.000e-01  
  3.2700e-09    1.375e-05    7.000e-01  
  3.2800e-09    1.367e-05    7.000e-01  
  3.2900e-09    1.359e-05    7.000e-01  
  3.3000e-09    1.351e-05    7.000e-01  
  3.3100e-09    1.342e-05    7.000e-01  
  3.3200e-09    1.334e-05    7.000e-01  
  3.3300e-09    1.326e-05    7.000e-01  
  3.3400e-09    1.324e-05    7.000e-01  
  3.3500e-09    1.329e-05    7.000e-01  
  3.3600e-09    1.335e-05    7.000e-01  
  3.3700e-09    1.340e-05    7.000e-01  
  3.3800e-09    1.345e-05    7.000e-01  
  3.3900e-09    1.351e-05    7.000e-01  
  3.4000e-09    1.356e-05    7.000e-01  
  3.4100e-09    1.361e-05    7.000e-01  
  3.4200e-09    1.367e-05    7.000e-01  
  3.4300e-09    1.372e-05    7.000e-01  
  3.4400e-09    1.377e-05    7.000e-01  
  3.4500e-09    1.383e-05    7.000e-01  
  3.4600e-09    1.388e-05    7.000e-01  
  3.4700e-09    1.393e-05    7.000e-01  
  3.4800e-09    1.399e-05    7.000e-01  
  3.4900e-09    1.404e-05    7.000e-01  
  3.5000e-09    1.409e-05    7.000e-01  
  3.5100e-09    1.415e-05    7.000e-01  
  3.5200e-09    1.420e-05    7.000e-01  
  3.5300e-09    1.425e-05    7.000e-01  
  3.5400e-09    1.426e-05    7.000e-01  
  3.5500e-09    1.421e-05    7.000e-01  
  3.5600e-09    1.416e-05    7.000e-01  
  3.5700e-09    1.410e-05    7.000e-01  
  3.5800e-09    1.405e-05    7.000e-01  
  3.5900e-09    1.400e-05    7.000e-01  
  3.6000e-09    1.394e-05    7.000e-01  
  3.6100e-09    1.389e-05    7.000e-01  
  3.6200e-09    1.384e-05    7.000e-01  
  3.6300e-09    1.379e-05    7.000e-01  
  3.6400e-09    1.373e-05    7.000e-01  
  3.6500e-09    1.368e-05    7.000e-01  
  3.6600e-09    1.363e-05    7.000e-01  
  3.6700e-09    1.358e-05    7.000e-01  
  3.6800e-09    1.352e-05    7.000e-01  
  3.6900e-09    1.347e-05    7.000e-01  
  3.7000e-09    1.342e-05    7.000e-01  
  3.7100e-09    1.336e-05    7.000e-01  
  3.7200e-09    1.331e-05    7.000e-01  
  3.7300e-09    1.326e-05    7.000e-01  
  3.7400e-09    1.325e-05    7.000e-01  
  3.7500e-09    1.330e-05    7.000e-01  
  3.7600e-09    1.336e-05    7.000e-01  
  3.7700e-09    1.341e-05    7.000e-01  
  3.7800e-09    1.346e-05    7.000e-01  
  3.7900e-09    1.351e-05    7.000e-01  
  3.8000e-09    1.356e-05    7.000e-01  
  3.8100e-09    1.362e-05    7.000e-01  
  3.8200e-09    1.367e-05    7.000e-01  
  3.8300e-09    1.372e-05    7.000e-01  
  3.8400e-09    1.377e-05    7.000e-01  
  3.8500e-09    1.382e-05    7.000e-01  
  3.8600e-09    1.388e-05    7.000e-01  
  3.8700e-09    1.393e-05    7.000e-01  
  3.8800e-09    1.398e-05    7.000e-01  
  3.8900e-09    1.403e-05    7.000e-01  
  3.9000e-09    1.408e-05    7.000e-01  
  3.9100e-09    1.414e-05    7.000e-01  
  3.9200e-09    1.419e-05    7.000e-01  
  3.9300e-09    1.424e-05    7.000e-01  
  3.9400e-09    1.420e-05    7.000e-01  
  3.9500e-09    1.404e-05    7.000e-01  
  3.9600e-09    1.389e-05    7.000e-01  
  3.9700e-09    1.373e-05    7.000e-01  
  3.9800e-09    1.357e-05    7.000e-01  
  3.9900e-09    1.341e-05    7.000e-01  
  4.0000e-09    1.326e-05    7.000e-01  
y
x

        time    voltage      voltage    
                 outin_10     outin_20  
  0.0000e+00    7.000e-01    1.363e-05  
  1.0000e-11    7.000e-01    1.614e-05  
  2.0000e-11    6.791e-01    1.327e-02  
  3.0000e-11    4.758e-01    1.408e-01  
  4.0000e-11    1.390e-01    4.552e-01  
  5.0000e-11   -2.778e-03    6.950e-01  
  6.0000e-11    3.733e-06    7.000e-01  
  7.0000e-11    2.390e-06    7.000e-01  
  8.0000e-11   -2.588e-06    7.000e-01  
  9.0000e-11    2.052e-05    7.000e-01  
  1.0000e-10    4.363e-05    7.000e-01  
  1.1000e-10    3.326e-05    7.000e-01  
  1.2000e-10    2.139e-05    7.000e-01  
  1.3000e-10    9.511e-06    7.000e-01  
  1.4000e-10   -2.365e-06    7.000e-01  
  1.5000e-10   -1.424e-05    6.999e-01  
  1.6000e-10   -1.290e-05    6.999e-01  
  1.7000e-10   -7.703e-06    7.000e-01  
  1.8000e-10   -2.510e-06    7.000e-01  
  1.9000e-10    2.683e-06    7.000e-01  
[...]
  3.6400e-09    1.363e-05    7.000e-01  
  3.6500e-09    1.363e-05    7.000e-01  
  3.6600e-09    1.363e-05    7.000e-01  
  3.6700e-09    1.363e-05    7.000e-01  
  3.6800e-09    1.363e-05    7.000e-01  
  3.6900e-09    1.363e-05    7.000e-01  
  3.7000e-09    1.363e-05    7.000e-01  
  3.7100e-09    1.363e-05    7.000e-01  
  3.7200e-09    1.363e-05    7.000e-01  
  3.7300e-09    1.363e-05    7.000e-01  
  3.7400e-09    1.363e-05    7.000e-01  
  3.7500e-09    1.363e-05    7.000e-01  
  3.7600e-09    1.363e-05    7.000e-01  
  3.7700e-09    1.363e-05    7.000e-01  
  3.7800e-09    1.363e-05    7.000e-01  
  3.7900e-09    1.363e-05    7.000e-01  
  3.8000e-09    1.363e-05    7.000e-01  
  3.8100e-09    1.363e-05    7.000e-01  
  3.8200e-09    1.363e-05    7.000e-01  
  3.8300e-09    1.363e-05    7.000e-01  
  3.8400e-09    1.363e-05    7.000e-01  
  3.8500e-09    1.363e-05    7.000e-01  
  3.8600e-09    1.363e-05    7.000e-01  
  3.8700e-09    1.363e-05    7.000e-01  
  3.8800e-09    1.363e-05    7.000e-01  
  3.8900e-09    1.363e-05    7.000e-01  
  3.9000e-09    1.363e-05    7.000e-01  
  3.9100e-09    1.363e-05    7.000e-01  
  3.9200e-09    1.363e-05    7.000e-01  
  3.9300e-09    1.363e-05    7.000e-01  
  3.9400e-09    1.363e-05    7.000e-01  
  3.9500e-09    1.363e-05    7.000e-01  
  3.9600e-09    1.363e-05    7.000e-01  
  3.9700e-09    1.363e-05    7.000e-01  
  3.9800e-09    1.363e-05    7.000e-01  
  3.9900e-09    1.363e-05    7.000e-01  
  4.0000e-09    1.363e-05    7.000e-01  
y
x

        time    voltage      voltage    
                 outin_11     outin_21  
  0.0000e+00    7.000e-01    1.363e-05  
  1.0000e-11    7.000e-01    1.614e-05  
  2.0000e-11    6.791e-01    1.327e-02  
  3.0000e-11    4.758e-01    1.408e-01  
  4.0000e-11    1.390e-01    4.552e-01  
  5.0000e-11   -2.778e-03    6.950e-01  
  6.0000e-11    3.733e-06    7.000e-01  
  7.0000e-11    2.390e-06    7.000e-01  
  8.0000e-11   -2.588e-06    7.000e-01  
  9.0000e-11    2.052e-05    7.000e-01  
  1.0000e-10    4.363e-05    7.000e-01  
  1.1000e-10    3.326e-05    7.000e-01  
  1.2000e-10    2.139e-05    7.000e-01  
  1.3000e-10    9.511e-06    7.000e-01  
  1.4000e-10   -2.365e-06    7.000e-01  
  1.5000e-10   -1.424e-05    6.999e-01  
  1.6000e-10   -1.290e-05    6.999e-01  
  1.7000e-10   -7.703e-06    7.000e-01  
  1.8000e-10   -2.510e-06    7.000e-01  
  1.9000e-10    2.683e-06    7.000e-01  
  2.0000e-10    7.877e-06    7.000e-01  
  2.1000e-10    1.307e-05    7.000e-01  
  2.2000e-10    1.826e-05    7.000e-01  
  2.3000e-10    2.346e-05    7.000e-01  
  2.4000e-10    2.865e-05    7.000e-01  
  2.5000e-10    3.384e-05    7.000e-01  
  2.6000e-10    3.904e-05    7.000e-01  
  2.7000e-10    4.389e-05    7.000e-01  
  2.8000e-10    4.086e-05    7.000e-01  
  2.9000e-10    3.783e-05    7.000e-01  
  3.0000e-10    3.480e-05    7.000e-01  
  3.1000e-10    3.176e-05    7.000e-01  
  3.2000e-10    2.873e-05    7.000e-01  
  3.3000e-10    2.570e-05    7.000e-01  
  3.4000e-10    2.267e-05    7.000e-01  
  3.5000e-10    1.964e-05    7.000e-01  
  3.6000e-10    1.660e-05    7.000e-01  
  3.7000e-10    1.357e-05    7.000e-01  
  3.8000e-10    1.054e-05    7.000e-01  
  3.9000e-10    7.507e-06    7.000e-01  
  4.0000e-10    4.475e-06    7.000e-01  
  4.1000e-10    1.443e-06    7.000e-01  
  4.2000e-10   -1.589e-06    7.000e-01  
  4.3000e-10   -4.621e-06    7.000e-01  
  4.4000e-10   -7.653e-06    7.000e-01  
  4.5000e-10   -1.069e-05    6.999e-01  
  4.6000e-10   -1.372e-05    6.999e-01  
  4.7000e-10   -1.650e-05    6.999e-01  
  4.8000e-10   -1.348e-05    6.999e-01  
  4.9000e-10   -1.046e-05    6.999e-01  
  5.0000e-10   -7.437e-06    7.000e-01  
  5.1000e-10   -4.416e-06    7.000e-01  
  5.2000e-10   -1.395e-06    7.000e-01  
  5.3000e-10    1.627e-06    7.000e-01  
  5.4000e-10    4.648e-06    7.000e-01  
  5.5000e-10    7.669e-06    7.000e-01  
  5.6000e-10    1.069e-05    7.000e-01  
  5.7000e-10    1.371e-05    7.000e-01  
  5.8000e-10    1.673e-05    7.000e-01  
  5.9000e-10    1.975e-05    7.000e-01  
  6.0000e-10    2.278e-05    7.000e-01  
  6.1000e-10    2.580e-05    7.000e-01  
  6.2000e-10    2.882e-05    7.000e-01  
  6.3000e-10    3.184e-05    7.000e-01  
  6.4000e-10    3.486e-05    7.000e-01  
  6.5000e-10    3.788e-05    7.000e-01  
  6.6000e-10    4.090e-05    7.000e-01  
  6.7000e-10    4.368e-05    7.000e-01  
  6.8000e-10    4.067e-05    7.000e-01  
  6.9000e-10    3.766e-05    7.000e-01  
  7.0000e-10    3.465e-05    7.000e-01  
  7.1000e-10    3.163e-05    7.000e-01  
  7.2000e-10    2.862e-05    7.000e-01  
  7.3000e-10    2.561e-05    7.000e-01  
  7.4000e-10    2.260e-05    7.000e-01  
  7.5000e-10    1.959e-05    7.000e-01  
  7.6000e-10    1.658e-05    7.000e-01  
  7.7000e-10    1.357e-05    7.000e-01  
  7.8000e-10    1.056e-05    7.000e-01  
  7.9000e-10    7.551e-06    7.000e-01  
  8.0000e-10    4.540e-06    7.000e-01  
  8.1000e-10    1.529e-06    7.000e-01  
  8.2000e-10   -1.481e-06    7.000e-01  
  8.3000e-10   -4.492e-06    7.000e-01  
  8.4000e-10   -7.502e-06    7.000e-01  
  8.5000e-10   -1.051e-05    6.999e-01  
  8.6000e-10   -1.352e-05    6.999e-01  
  8.7000e-10   -1.627e-05    6.999e-01  
  8.8000e-10   -1.295e-05    6.999e-01  
  8.9000e-10   -9.624e-06    6.999e-01  
  9.0000e-10   -6.299e-06    7.000e-01  
  9.1000e-10   -2.974e-06    7.000e-01  
  9.2000e-10    0.000e+00    7.000e-01  
  9.3000e-10    3.676e-06    7.000e-01  
  9.4000e-10    7.001e-06    7.000e-01  
  9.5000e-10    1.033e-05    7.000e-01  
  9.6000e-10    1.365e-05    7.000e-01  
  9.7000e-10    1.698e-05    7.000e-01  
  9.8000e-10    2.030e-05    7.000e-01  
  9.9000e-10    2.363e-05    7.000e-01  
  1.0000e-09    2.695e-05    7.000e-01  
  1.0100e-09    3.028e-05    7.000e-01  
  1.0200e-09    3.360e-05    7.000e-01  
  1.0300e-09    3.693e-05    7.000e-01  
  1.0400e-09    4.025e-05    7.000e-01  
  1.0500e-09    4.358e-05    7.000e-01  
  1.0600e-09    1.341e-05    7.000e-01  
  1.0700e-09    1.246e-05    7.000e-01  
  1.0800e-09    1.419e-05    7.000e-01  
  1.0900e-09    1.355e-05    7.000e-01  
  1.1000e-09    1.345e-05    7.000e-01  
  1.1100e-09    1.363e-05    7.000e-01  
  1.1200e-09    1.364e-05    7.000e-01  
  1.1300e-09    1.363e-05    7.000e-01  
  1.1400e-09    1.363e-05    7.000e-01  
  1.1500e-09    1.363e-05    7.000e-01  
  1.1600e-09    1.363e-05    7.000e-01  
  1.1700e-09    1.364e-05    7.000e-01  
  1.1800e-09    1.364e-05    7.000e-01  
  1.1900e-09    1.363e-05    7.000e-01  
  1.2000e-09    1.363e-05    7.000e-01  
  1.2100e-09    1.363e-05    7.000e-01  
  1.2200e-09    1.363e-05    7.000e-01  
  1.2300e-09    1.363e-05    7.000e-01  
  1.2400e-09    1.363e-05    7.000e-01  
  1.2500e-09    1.363e-05    7.000e-01  
  1.2600e-09    1.363e-05    7.000e-01  
  1.2700e-09    1.363e-05    7.000e-01  
  1.2800e-09    1.363e-05    7.000e-01  
  1.2900e-09    1.363e-05    7.000e-01  
  1.3000e-09    1.363e-05    7.000e-01  
  1.3100e-09    1.363e-05    7.000e-01  
  1.3200e-09    1.363e-05    7.000e-01  
  1.3300e-09    1.363e-05    7.000e-01  
  1.3400e-09    1.363e-05    7.000e-01  
  1.3500e-09    1.363e-05    7.000e-01  
  1.3600e-09    1.364e-05    7.000e-01  
  1.3700e-09    1.364e-05    7.000e-01  
  1.3800e-09    1.364e-05    7.000e-01  
  1.3900e-09    1.364e-05    7.000e-01  
  1.4000e-09    1.364e-05    7.000e-01  
  1.4100e-09    1.364e-05    7.000e-01  
  1.4200e-09    1.363e-05    7.000e-01  
  1.4300e-09    1.363e-05    7.000e-01  
  1.4400e-09    1.363e-05    7.000e-01  
  1.4500e-09    1.363e-05    7.000e-01  
  1.4600e-09    1.363e-05    7.000e-01  
  1.4700e-09    1.363e-05    7.000e-01  
  1.4800e-09    1.363e-05    7.000e-01  
  1.4900e-09    1.363e-05    7.000e-01  
  1.5000e-09    1.363e-05    7.000e-01  
  1.5100e-09    1.363e-05    7.000e-01  
  1.5200e-09    1.363e-05    7.000e-01  
  1.5300e-09    1.363e-05    7.000e-01  
  1.5400e-09    1.363e-05    7.000e-01  
  1.5500e-09    1.363e-05    7.000e-01  
  1.5600e-09    1.363e-05    7.000e-01  
  1.5700e-09    1.363e-05    7.000e-01  
  1.5800e-09    1.363e-05    7.000e-01  
  1.5900e-09    1.363e-05    7.000e-01  
  1.6000e-09    1.363e-05    7.000e-01  
  1.6100e-09    1.363e-05    7.000e-01  
  1.6200e-09    1.363e-05    7.000e-01  
  1.6300e-09    1.363e-05    7.000e-01  
  1.6400e-09    1.363e-05    7.000e-01  
  1.6500e-09    1.363e-05    7.000e-01  
  1.6600e-09    1.363e-05    7.000e-01  
  1.6700e-09    1.363e-05    7.000e-01  
  1.6800e-09    1.363e-05    7.000e-01  
  1.6900e-09    1.363e-05    7.000e-01  
  1.7000e-09    1.363e-05    7.000e-01  
  1.7100e-09    1.363e-05    7.000e-01  
  1.7200e-09    1.363e-05    7.000e-01  
  1.7300e-09    1.363e-05    7.000e-01  
  1.7400e-09    1.363e-05    7.000e-01  
  1.7500e-09    1.364e-05    7.000e-01  
  1.7600e-09    1.364e-05    7.000e-01  
  1.7700e-09    1.364e-05    7.000e-01  
  1.7800e-09    1.364e-05    7.000e-01  
  1.7900e-09    1.364e-05    7.000e-01  
  1.8000e-09    1.364e-05    7.000e-01  
  1.8100e-09    1.364e-05    7.000e-01  
  1.8200e-09    1.363e-05    7.000e-01  
  1.8300e-09    1.363e-05    7.000e-01  
  1.8400e-09    1.363e-05    7.000e-01  
  1.8500e-09    1.363e-05    7.000e-01  
  1.8600e-09    1.363e-05    7.000e-01  
  1.8700e-09    1.363e-05    7.000e-01  
  1.8800e-09    1.363e-05    7.000e-01  
  1.8900e-09    1.363e-05    7.000e-01  
  1.9000e-09    1.363e-05    7.000e-01  
  1.9100e-09    1.363e-05    7.000e-01  
  1.9200e-09    1.363e-05    7.000e-01  
  1.9300e-09    1.363e-05    7.000e-01  
  1.9400e-09    1.363e-05    7.000e-01  
  1.9500e-09    1.363e-05    7.000e-01  
  1.9600e-09    1.363e-05    7.000e-01  
  1.9700e-09    1.363e-05    7.000e-01  
  1.9800e-09    1.363e-05    7.000e-01  
  1.9900e-09    1.363e-05    7.000e-01  
  2.0000e-09    1.363e-05    7.000e-01  
  2.0100e-09    1.363e-05    7.000e-01  
  2.0200e-09    1.363e-05    7.000e-01  
  2.0300e-09    1.363e-05    7.000e-01  
  2.0400e-09    1.363e-05    7.000e-01  
  2.0500e-09    1.363e-05    7.000e-01  
  2.0600e-09    3.428e-06    7.000e-01  
  2.0700e-09   -1.771e-03    6.999e-01  
  2.0800e-09    6.389e-02    7.032e-01  
  2.0900e-09    6.186e-01    2.399e-01  
  2.1000e-09    7.001e-01    1.299e-03  
  2.1100e-09    7.000e-01    1.445e-05  
  2.1200e-09    7.000e-01    1.827e-05  
  2.1300e-09    7.000e-01   -2.276e-05  
  2.1400e-09    7.000e-01    0.000e+00  
  2.1500e-09    7.000e-01    2.209e-05  
  2.1600e-09    7.000e-01    4.451e-05  
  2.1700e-09    7.000e-01    4.551e-05  
  2.1800e-09    7.000e-01    3.535e-05  
  2.1900e-09    7.000e-01    2.520e-05  
  2.2000e-09    7.000e-01    1.504e-05  
  2.2100e-09    7.000e-01    4.882e-06  
  2.2200e-09    7.000e-01   -5.275e-06  
  2.2300e-09    7.000e-01   -1.543e-05  
  2.2400e-09    7.000e-01   -2.422e-05  
  2.2500e-09    7.000e-01   -1.944e-05  
  2.2600e-09    7.000e-01   -1.466e-05  
  2.2700e-09    7.000e-01   -9.881e-06  
  2.2800e-09    7.000e-01   -5.100e-06  
  2.2900e-09    7.000e-01    0.000e+00  
  2.3000e-09    7.000e-01    4.461e-06  
  2.3100e-09    7.000e-01    9.242e-06  
  2.3200e-09    7.000e-01    1.402e-05  
  2.3300e-09    7.000e-01    1.880e-05  
  2.3400e-09    7.000e-01    2.358e-05  
  2.3500e-09    7.000e-01    2.837e-05  
  2.3600e-09    7.000e-01    3.315e-05  
  2.3700e-09    7.000e-01    3.793e-05  
  2.3800e-09    7.000e-01    4.271e-05  
  2.3900e-09    7.000e-01    4.749e-05  
  2.4000e-09    7.000e-01    5.143e-05  
  2.4100e-09    7.000e-01    4.762e-05  
  2.4200e-09    7.000e-01    4.381e-05  
  2.4300e-09    7.000e-01    3.999e-05  
  2.4400e-09    7.000e-01    3.618e-05  
  2.4500e-09    7.000e-01    3.237e-05  
  2.4600e-09    7.000e-01    2.856e-05  
  2.4700e-09    7.000e-01    2.475e-05  
  2.4800e-09    7.000e-01    2.093e-05  
  2.4900e-09    7.000e-01    1.712e-05  
  2.5000e-09    7.000e-01    1.331e-05  
  2.5100e-09    7.000e-01    9.498e-06  
  2.5200e-09    7.000e-01    5.686e-06  
  2.5300e-09    7.000e-01    1.873e-06  
  2.5400e-09    7.000e-01   -1.939e-06  
  2.5500e-09    7.000e-01   -5.751e-06  
  2.5600e-09    7.000e-01   -9.563e-06  
  2.5700e-09    7.000e-01   -1.338e-05  
  2.5800e-09    7.000e-01   -1.719e-05  
  2.5900e-09    7.000e-01   -2.100e-05  
  2.6000e-09    7.000e-01   -2.407e-05  
  2.6100e-09    7.000e-01   -2.027e-05  
  2.6200e-09    7.000e-01   -1.646e-05  
  2.6300e-09    7.000e-01   -1.266e-05  
  2.6400e-09    7.000e-01   -8.859e-06  
  2.6500e-09    7.000e-01   -5.057e-06  
  2.6600e-09    7.000e-01   -1.254e-06  
  2.6700e-09    7.000e-01    2.548e-06  
  2.6800e-09    7.000e-01    6.350e-06  
  2.6900e-09    7.000e-01    1.015e-05  
  2.7000e-09    7.000e-01    1.396e-05  
  2.7100e-09    7.000e-01    1.776e-05  
  2.7200e-09    7.000e-01    2.156e-05  
  2.7300e-09    7.000e-01    2.536e-05  
  2.7400e-09    7.000e-01    2.917e-05  
  2.7500e-09    7.000e-01    3.297e-05  
  2.7600e-09    7.000e-01    3.677e-05  
  2.7700e-09    7.000e-01    4.057e-05  
  2.7800e-09    7.000e-01    4.437e-05  
  2.7900e-09    7.000e-01    4.818e-05  
  2.8000e-09    7.000e-01    5.124e-05  
  2.8100e-09    7.000e-01    4.745e-05  
  2.8200e-09    7.000e-01    4.365e-05  
  2.8300e-09    7.000e-01    3.986e-05  
  2.8400e-09    7.000e-01    3.607e-05  
  2.8500e-09    7.000e-01    3.227e-05  
  2.8600e-09    7.000e-01    2.848e-05  
  2.8700e-09    7.000e-01    2.469e-05  
  2.8800e-09    7.000e-01    2.090e-05  
  2.8900e-09    7.000e-01    1.710e-05  
  2.9000e-09    7.000e-01    1.331e-05  
  2.9100e-09    7.000e-01    9.518e-06  
  2.9200e-09    7.000e-01    5.726e-06  
  2.9300e-09    7.000e-01    1.933e-06  
  2.9400e-09    7.000e-01   -1.860e-06  
  2.9500e-09    7.000e-01   -5.653e-06  
  2.9600e-09    7.000e-01   -9.446e-06  
  2.9700e-09    7.000e-01   -1.324e-05  
  2.9800e-09    7.000e-01   -1.703e-05  
  2.9900e-09    7.000e-01   -2.082e-05  
  3.0000e-09    7.000e-01   -2.280e-05  
  3.0100e-09    7.000e-01   -8.015e-06  
  3.0200e-09    7.000e-01    6.774e-06  
  3.0300e-09    7.000e-01    2.156e-05  
  3.0400e-09    7.000e-01    3.635e-05  
  3.0500e-09    7.000e-01    5.114e-05  
  3.0600e-09    7.000e-01    1.320e-05  
  3.0700e-09    7.000e-01    1.400e-05  
  3.0800e-09    7.000e-01    1.364e-05  
  3.0900e-09    7.000e-01    1.363e-05  
  3.1000e-09    7.000e-01    1.363e-05  
  3.1100e-09    7.000e-01    1.363e-05  
  3.1200e-09    7.000e-01    1.363e-05  
  3.1300e-09    7.000e-01    1.363e-05  
  3.1400e-09    7.000e-01    1.363e-05  
  3.1500e-09    7.000e-01    1.363e-05  
  3.1600e-09    7.000e-01    1.363e-05  
  3.1700e-09    7.000e-01    1.363e-05  
  3.1800e-09    7.000e-01    1.363e-05  
  3.1900e-09    7.000e-01    1.363e-05  
  3.2000e-09    7.000e-01    1.363e-05  
  3.2100e-09    7.000e-01    1.363e-05  
  3.2200e-09    7.000e-01    1.363e-05  
  3.2300e-09    7.000e-01    1.363e-05  
  3.2400e-09    7.000e-01    1.363e-05  
  3.2500e-09    7.000e-01    1.363e-05  
  3.2600e-09    7.000e-01    1.363e-05  
  3.2700e-09    7.000e-01    1.363e-05  
  3.2800e-09    7.000e-01    1.363e-05  
  3.2900e-09    7.000e-01    1.363e-05  
  3.3000e-09    7.000e-01    1.363e-05  
  3.3100e-09    7.000e-01    1.363e-05  
  3.3200e-09    7.000e-01    1.363e-05  
  3.3300e-09    7.000e-01    1.363e-05  
  3.3400e-09    7.000e-01    1.363e-05  
  3.3500e-09    7.000e-01    1.363e-05  
  3.3600e-09    7.000e-01    1.363e-05  
  3.3700e-09    7.000e-01    1.363e-05  
  3.3800e-09    7.000e-01    1.363e-05  
  3.3900e-09    7.000e-01    1.363e-05  
  3.4000e-09    7.000e-01    1.363e-05  
  3.4100e-09    7.000e-01    1.363e-05  
  3.4200e-09    7.000e-01    1.363e-05  
  3.4300e-09    7.000e-01    1.363e-05  
  3.4400e-09    7.000e-01    1.363e-05  
  3.4500e-09    7.000e-01    1.363e-05  
  3.4600e-09    7.000e-01    1.363e-05  
  3.4700e-09    7.000e-01    1.363e-05  
  3.4800e-09    7.000e-01    1.363e-05  
  3.4900e-09    7.000e-01    1.363e-05  
  3.5000e-09    7.000e-01    1.363e-05  
  3.5100e-09    7.000e-01    1.363e-05  
  3.5200e-09    7.000e-01    1.363e-05  
  3.5300e-09    7.000e-01    1.363e-05  
  3.5400e-09    7.000e-01    1.363e-05  
  3.5500e-09    7.000e-01    1.363e-05  
  3.5600e-09    7.000e-01    1.363e-05  
  3.5700e-09    7.000e-01    1.363e-05  
  3.5800e-09    7.000e-01    1.363e-05  
  3.5900e-09    7.000e-01    1.363e-05  
  3.6000e-09    7.000e-01    1.363e-05  
  3.6100e-09    7.000e-01    1.363e-05  
  3.6200e-09    7.000e-01    1.363e-05  
  3.6300e-09    7.000e-01    1.363e-05  
  3.6400e-09    7.000e-01    1.363e-05  
  3.6500e-09    7.000e-01    1.363e-05  
  3.6600e-09    7.000e-01    1.363e-05  
  3.6700e-09    7.000e-01    1.363e-05  
  3.6800e-09    7.000e-01    1.363e-05  
  3.6900e-09    7.000e-01    1.363e-05  
  3.7000e-09    7.000e-01    1.363e-05  
  3.7100e-09    7.000e-01    1.363e-05  
  3.7200e-09    7.000e-01    1.363e-05  
  3.7300e-09    7.000e-01    1.363e-05  
  3.7400e-09    7.000e-01    1.363e-05  
  3.7500e-09    7.000e-01    1.363e-05  
  3.7600e-09    7.000e-01    1.363e-05  
  3.7700e-09    7.000e-01    1.363e-05  
  3.7800e-09    7.000e-01    1.363e-05  
  3.7900e-09    7.000e-01    1.363e-05  
  3.8000e-09    7.000e-01    1.363e-05  
  3.8100e-09    7.000e-01    1.363e-05  
  3.8200e-09    7.000e-01    1.363e-05  
  3.8300e-09    7.000e-01    1.363e-05  
  3.8400e-09    7.000e-01    1.363e-05  
  3.8500e-09    7.000e-01    1.363e-05  
  3.8600e-09    7.000e-01    1.363e-05  
  3.8700e-09    7.000e-01    1.363e-05  
  3.8800e-09    7.000e-01    1.363e-05  
  3.8900e-09    7.000e-01    1.363e-05  
  3.9000e-09    7.000e-01    1.363e-05  
  3.9100e-09    7.000e-01    1.363e-05  
  3.9200e-09    7.000e-01    1.363e-05  
  3.9300e-09    7.000e-01    1.363e-05  
  3.9400e-09    7.000e-01    1.363e-05  
  3.9500e-09    7.000e-01    1.363e-05  
  3.9600e-09    7.000e-01    1.363e-05  
  3.9700e-09    7.000e-01    1.363e-05  
  3.9800e-09    7.000e-01    1.363e-05  
  3.9900e-09    7.000e-01    1.363e-05  
  4.0000e-09    7.000e-01    1.363e-05  
y

          ***** job concluded
1****** HSPICE -- F-2011.09-SP2 64-BIT (Feb 27 2012) linux ******               
 ******  
 $ netlist of inverter

  ******  job statistics summary tnom=  25.000 temp=  25.000 *****
  
  
 ******  Machine Information  ******
 CPU:
 model name	: Intel(R) Xeon(R) CPU E5-2650 v4 @ 2.20GHz
 cpu MHz	: 2169.578
  
 OS:
 Linux version 3.10.0-693.17.1.el7.x86_64 (mockbuild@x86-041.build.eng.bos.redha
 t.com) (gcc version 4.8.5 20150623 (Red Hat 4.8.5-16) (GCC) ) #1 SMP Sun Jan 14
  10:36:03 EST 2018


  ******  HSPICE Threads Information  ******

  Command Line Threads Count :     1
  Available CPU Count        :    24
  Actual Threads Count       :     1


  ******  Circuit Statistics  ******
  # nodes       =      44 # elements   =      19
  # resistors   =       0 # capacitors =       0 # inductors   =       0
  # mutual_inds =       0 # vccs       =       0 # vcvs        =       0
  # cccs        =       0 # ccvs       =       0 # volt_srcs   =       3
  # curr_srcs   =       0 # diodes     =       0 # bjts        =       0
  # jfets       =       0 # mosfets    =      16 # U elements  =       0
  # T elements  =       0 # W elements =       0 # B elements  =       0
  # S elements  =       0 # P elements =       0 # va device   =       0
  # vector_srcs =       0


  ******  Runtime Statistics (seconds)  ******

  analysis           time    # points   tot. iter  conv.iter
  op point           0.00           1           4
  transient          0.04         401         453         118 rev=         5
  readin             0.00
  errchk             0.01
  setup              0.00
  output             0.01


           peak memory used        135.46 megabytes
           total cpu time            0.06 seconds
           total elapsed time        0.51 seconds
           job started at     14:56:46 09/15/2020
           job ended   at     14:56:46 09/15/2020


 lic: Release hspice token(s) 
