 ****** HSPICE -- F-2011.09-SP2 64-BIT (Feb 27 2012) linux ******               
  Copyright (C) 2011 Synopsys, Inc. All Rights Reserved.                        
  Unpublished-rights reserved under US copyright laws.
  This program is protected by law and is subject to the
  terms and conditions of the license agreement from Synopsys.
  Use of this program is your acceptance to be bound by the
  license agreement. HSPICE is the trademark of Synopsys, Inc.
  Input File: ptm7hp.sp                                                         
  Command line options: ptm7hp.sp
 lic:  
 lic: FLEXlm: v10.8 
 lic: USER:   iliabautista         HOSTNAME: itn0.rc.usf.edu 
 lic: HOSTID:                      PID:      16958 
 lic: Using FLEXlm license file: 
 lic: 27000@license0.rc.usf.edu 
 lic: Checkout 1 hspice 
 lic: License/Maintenance for hspice will expire on 18-jul-2021/2019.06 
 lic: 1(in_use)/50(total) FLOATING license(s) on SERVER license0.rc.usf.edu 
 lic:   
  **warning** (../modelfiles/hp/7nfet.pm:4) Model nfet device geometries will not be checked against the limits set by lmin, lmax, nfinmin and nfinmax. To enable this check, add a period(.) to the model name(i.e. enable model selector).
1****** HSPICE -- F-2011.09-SP2 64-BIT (Feb 27 2012) linux ******               
 ******  
 $ netlist of inverter

  ******  circuit name directory
 circuit number to circuit name directory
   number circuitname                     definition         multiplier
        0 main circuit
        1 xinput_0.                       inverter           1.00 
        2 xinput_1.                       inverter           1.00 
        3 xmodel_uut_grid.                model_uut_grid     1.00 
        4 xoutput_00.                     inverter           1.00 
        5 xoutput_10.                     inverter           1.00 
        6 xinput_0.xpfet.                 pfet               1.00 
        7 xinput_0.xnfet.                 nfet               1.00 
        8 xinput_1.xpfet.                 pfet               1.00 
        9 xinput_1.xnfet.                 nfet               1.00 
       10 xmodel_uut_grid.xinverter00.    inverter           1.00 
       11 xmodel_uut_grid.xinverter10.    inverter           1.00 
       12 xmodel_uut_grid.xinverter01.    inverter           1.00 
       13 xmodel_uut_grid.xinverter11.    inverter           1.00 
       14 xoutput_00.xpfet.               pfet               1.00 
       15 xoutput_00.xnfet.               nfet               1.00 
       16 xoutput_10.xpfet.               pfet               1.00 
       17 xoutput_10.xnfet.               nfet               1.00 
       18 xmodel_uut_grid.xinverter00.xpfet.
                                            pfet               1.00 
       19 xmodel_uut_grid.xinverter00.xnfet.
                                            nfet               1.00 
       20 xmodel_uut_grid.xinverter10.xpfet.
                                            pfet               1.00 
       21 xmodel_uut_grid.xinverter10.xnfet.
                                            nfet               1.00 
       22 xmodel_uut_grid.xinverter01.xpfet.
                                            pfet               1.00 
       23 xmodel_uut_grid.xinverter01.xnfet.
                                            nfet               1.00 
       24 xmodel_uut_grid.xinverter11.xpfet.
                                            pfet               1.00 
       25 xmodel_uut_grid.xinverter11.xnfet.
                                            nfet               1.00 
1****** HSPICE -- F-2011.09-SP2 64-BIT (Feb 27 2012) linux ******               
 ******  
 $ netlist of inverter

  ******  mos   model parameters tnom=  25.000 temp=  25.000 *****
 Model Name: pfet 
 BSIM-MG BULK Model(Level72)
   VERSION = 105.03  
   DEVTYPE = -1 
   BULKMOD = 1  
   COREMOD = 0 
   GEOMOD = 1 
   RDSMOD = 1 
   IGCMOD = 1 
   IGBMOD = 1 
   GIDLMOD = 0 
   IIMOD = 0 
   NQSMOD = 0 
   SHMOD = 0 
   RGATEMOD = 0 
   RGEOMOD = 1 
   CGEOMOD = 2 
   CAPMOD = 0 
   LINT =  2e-10 m
   LL =      0 m^(LLN+1)
   LLN =      1 
   DLC =      0 m
   DLBIN =      0 
   LLC =      0 m^(LLN+1)
   EOT = 6.2e-10 m
   TOXP = 1.15e-09 m
   EOTBOX = 1.4e-07 m
   HFIN = 1.8e-08 m
   FECH =      1 
   DELTAW =      0 m
   FECHCV =      1 
   DELTAWCV =      0 m
   NBODY =  1e+22 m^-3
   NSD =  3e+26 m^-3
   PHIG =  4.747 eV
   EPSROX =    3.9 
   EPSRSUB =   11.9 
   EASUB =   4.05 eV
   NI0SUB = 1.1e+16 m^-3
   BG0SUB =   1.12 eV
   NC0SUB = 2.86e+25 m^-3
   NGATE =      0 m^-3
   CIT = 1.3e-05 F/m^2
   CDSC =  0.039 F/m^2
   CDSCD =  0.007 F/m^2
   CDSCDR =  0.007 
   DVT0 =   0.01 
   DVT1 =   0.69 
   PHIN =   0.05 V
   ETA0 =   0.97 
   ETA0R =   0.97 
   DSUB =    0.9 
   K1RSCE =      0 V^1/2
   LPE0 =  5e-09 m
   DVTSHIFT =      0 
   QMFACTOR =      0 
   QMTCENIV =      0 
   QMTCENCV =      0 
   AQMTCEN =      0 
   BQMTCEN = 1.2e-08 
   ETAQM =   0.54 
   QM0 = 0.001143 
   PQM =   0.66 
   QM0ACC =  0.001 
   PQMACC =   0.66 
   VSAT = 1.53e+05 
   AVSAT =      0 
   BVSAT =  1e-07 
   VSAT1 = 1.53e+05 
   AVSAT1 =      0 
   BVSAT1 =  1e-07 
   DELTAVSAT =      1 
   KSATIV =    0.8 
   MEXP =      3 
   AMEXP =      0 
   BMEXP =      1 
   PTWG =      0 
   APTWG =      0 
   BPTWG =  1e-07 
   AT = -0.00156 
   TMEXP =      0 
   PTWGT =  0.004 
   U0 =  0.042 
   ETAMOB =      2 
   UP =      0 
   LPA =      1 
   UA =    0.3 
   AUA =      0 
   BUA =  1e-07 
   EU =    1.8 
   AEU =      0 
   BEU =  1e-07 
   UD =      0 
   AUD =      0 
   BUD =  5e-08 
   UCS =      0 
   UTE =      0 
   UTL = -0.0015 
   UA1 = 0.001032 
   UD1 =      0 
   UCSTE = -0.00478 
   RDSWMIN =      0 
   RDSW =    100 
   ARDSW =      0 
   BRDSW =  1e-07 
   RSWMIN =      0 
   RSW =      0 
   ARSW =      0 
   BRSW =  1e-07 
   RDWMIN =      0 
   RDW =      0 
   ARDW =      0 
   BRDW =  1e-07 
   PRWG =      0 
   WR =      1 
   PRT =  0.001 
   PDIBL1 =    1.3 
   PDIBL2 = 0.0002 
   DROUT =   1.06 
   PVAG =      1 
   PCLM =    0.2 
   APCLM =      0 
   BPCLM =  1e-07 
   PCLMG =      0 
   VASAT =    0.6 
   PCLMCV =  0.013 
   PCLMGCV =      0 
   VASATCV =    0.2 
   RGEXT =      0 ohm
   RGFIN =  0.001 ohm
   RSHS =      0 ohm
   RSHD =      0 ohm
   HEPI =  8e-09 m
   TSILI =  7e-09 m
   RHOC =  5e-13 ohm/m^2
   RHORSD =      1 ohm/m
   RHOEXT =      1 ohm/m
   CRATIO =    0.5 
   DELTAPRSD =      0 m
   SDTERM = 0 
   LSP = 2.2e-09 m
   LDG =  2e-09 m
   EPSRSP =    3.9 
   TGATE = 7.5e-09 m
   TMASK =      0 m
   ASILIEND =      0 m^2
   ARSDEND =      0 m^2
   PRSDEND =      0 m
   NSDE =  9e+25 m^-3
   RGEOA =      1 
   RGEOB =      0 m^-1
   RGEOC =      0 m^-1
   RGEOD =      0 m^-1
   RGEOE =      0 m^-1
   CGEOA =      1 
   CGEOB =      0 m^-1
   CGEOC =      0 m^-1
   CGEOD =      0 m^-1
   CGEOE =      1 
   AIGBINV = 0.0111 (Fs^2/g)^0.5m^-1
   BIGBINV =   0.03 (Fs^2/g)^0.5m^-1
   CIGBINV =  0.006 V^-1
   EIGBINV =    1.1 V
   NIGBINV =    1.2 
   AIGBACC = 0.0149 
   BIGBACC = 0.000949 
   CIGBACC =  0.075 
   NIGBACC =      3 
   AIGC = 0.0136 (Fs^2/g)^0.5m^-1
   BIGC = 0.00171 (Fs^2/g)^0.5m^-1V^-1
   CIGC =  0.075 V^-1
   NIGC =      1 
   DLCIGS =      0 m
   AIGS = 0.0136 (Fs^2/g)^0.5m^-1
   BIGS = 0.00171 (Fs^2/g)^0.5m^-1V^-1
   CIGS =  0.075 V^-1
   DLCIGD =      0 m
   AIGD = 0.0136 (Fs^2/g)^0.5m^-1
   BIGD = 0.00171 (Fs^2/g)^0.5m^-1V^-1
   CIGD =  0.075 V^-1
   POXEDGE =      1 
   AGIDL = 5.729e-12 ohm^-1
   BGIDL =  3e+08 V/m
   EGIDL =    0.1 V
   AGISL = 5.729e-12 ohm^-1
   BGISL =  3e+08 V/m
   EGISL =    0.1 V
   ALPHA0 =      0 mV^-1
   ALPHA1 =      0 V^-1
   BETA0 =     30 V^-1
   ALPHAII =      0 
   BETAII0 =      0 V^-1
   BETAII1 =      0 
   BETAII2 =    0.1 V
   ESATII =  1e+07 V/m
   LII =  5e-10 V/m
   SII0 =    0.5 V^-1
   SII1 =    0.1 
   SII2 =      0 V
   SIID =      0 V
   EOTACC = 6.2e-10 m
   DELVFBACC =      0 V
   CFS = 2.56e-11 F/m
   CFD = 2.65e-11 F/m
   COVS = 2.5e-11 F/m
   COVD = 2.5e-11 F/m
   CGSO =      0 F/m
   CGDO =      0 F/m
   CGSL =      0 F/m
   CGDL =      0 F/m
   CKAPPAS =    0.6 V
   CKAPPAD =    0.6 V
   CGBO =      0 F/m
   CGBL =      0 F/m
   CKAPPAB =    0.6 V
   CSDESW =      0 F/m
   CJS = 0.0005 F/m^2
   CJD = 0.0005 F/m^2
   CJSWS =  5e-10 F/m
   CJSWD =  5e-10 F/m
   CJSWGS =      0 F/m
   CJSWGD =      0 F/m
   PBS =      1 V
   PBD =      1 V
   PBSWS =      1 V
   PBSWD =      1 V
   PBSWGS =      1 V
   PBSWGD =      1 V
   MJS, =    0.5 
   MJD =    0.5 
   MJSWS =   0.33 
   MJSWD =   0.33 
   MJSWGS =   0.33 
   MJSWGD =   0.33 
   SJS =      0 
   SJD =      0 
   SJSWS =      0 
   SJSWD =      0 
   SJSWGS =      0 
   SJSWGD =      0 
   MJS2 =  0.125 
   MJD2 =  0.125 
   MJSWS2 =   0.33 
   MJSWD2 =   0.33 
   MJSWGS2 =   0.33 
   MJSWGD2 =   0.33 
   JSS = 0.0001 A/m^2
   JSD = 0.0001 A/m^2
   JSWS =      0 A/m
   JSWD =      0 A/m
   JSWGS =      0 A/m
   JSWGD =      0 A/m
   NJS =      1 
   NJD =      1 
   IJTHSFWD =    0.1 A
   IJTHDFWD =    0.1 A
   IJTHSREV =    0.1 A
   IJTHDREV =    0.1 A
   BVS =     10 V
   BVD =     10 V
   XJBVS =      1 
   XJBVD =      1 
   JTSS =      0 A/m^2
   JTSD =      0 A/m^2
   JTSSWS =      0 A/m
   JTSSWD =      0 A/m
   JTSSWGS =      0 A/m
   JTSSWGD =      0 A/m
   JTWEFF =      0 m
   NJTS =     20 
   NJTSD =     20 
   NJTSSW =     20 
   NJTSSWD =     20 
   NJTSSWG =     20 
   NJTSSWGD =     20 
   VTSS =     10 V
   VTSD =     10 V
   VTSSWS =     10 V
   VTSSWD =     10 V
   VTSSWGS =     10 V
   VTSSWGD =     10 V
   LINTIGEN =      0 m
   NTGEN =      1 
   AIGEN =      0 m^-3V^-1
   BIGEN =      0 m^-3V^-3
   XRCRG1 =     12 
   XRCRG2 =      1 
   NSEG = 5 
   EF =      1 
   EM = 4.1e+07 V/m
   NOIA = 6.25e+39 eV^-1s^1-EFm^-3
   NOIB = 3.125e+24 eV^-1s^1-EFm^-1
   NOIC = 8.75e+07 eV^-1s^1-EFm
   NTNOI =      1 
   TNOM =  300.1 K
   TBGASUB = 0.000702 eV/K
   TBGBSUB =   1108 K
   KT1 =      0 V
   KT1L =      0 Vm
   IIT =   -0.5 
   TII =      0 
   TGIDL = -0.0003 K^-1
   IGT =    2.5 
   TCJ =      0 K^-1
   TCJSW =      0 K^-1
   TCJSWG =      0 K^-1
   TPB =      0 K^-1
   TPBSW =      0 K^-1
   TPBSWG =      0 K^-1
   XTIS =      3 
   XTID =      3 
   XTSS =   0.02 
   XTSD =   0.02 
   XTSSWS =   0.02 
   XTSSWD =   0.02 
   XTSSWGS =   0.02 
   XTSSWGD =   0.02 
   TNJTS =      0 
   TNJTSD =      0 
   TNJTSSW =      0 
   TNJTSSWD =      0 
   TNJTSSWG =      0 
   TNJTSSWGD =      0 
   RTH0 =   0.01 ohm
   CTH0 =  1e-05 F
   WTH0 =      0 m
   LNBODY =      0 
   NNBODY =      0 
   PNBODY =      0 
   LPHIG =      0 
   NPHIG =      0 
   PPHIG =      0 
   LNGATE =      0 
   NNGATE =      0 
   PNGATE =      0 
   LCIT =      0 
   NCIT =      0 
   PCIT =      0 
   LCDSC =      0 
   NCDSC =      0 
   PCDSC =      0 
   LCDSCD =      0 
   NCDSCD =      0 
   PCDSCD =      0 
   LCDSCDR =      0 
   NCDSCDR =      0 
   PCDSCDR =      0 
   LDVT0 =      0 
   NDVT0 =      0 
   PDVT0 =      0 
   LDVT1 =      0 
   NDVT1 =      0 
   PDVT1 =      0 
   LPHIN =      0 
   NPHIN =      0 
   PPHIN =      0 
   LETA0 =      0 
   NETA0 =      0 
   PETA0 =      0 
   LETA0R =      0 
   NETA0R =      0 
   PETA0R =      0 
   LDSUB =      0 
   NDSUB =      0 
   PDSUB =      0 
   LK1RSCE =      0 
   NK1RSCE =      0 
   PK1RSCE =      0 
   LLPE0 =      0 
   NLPE0 =      0 
   PLPE0 =      0 
   LQMFACTOR =      0 
   NQMFACTOR =      0 
   PQMFACTOR =      0 
   LQMTCENIV =      0 
   NQMTCENIV =      0 
   PQMTCENIV =      0 
   LQMTCENCV =      0 
   NQMTCENCV =      0 
   PQMTCENCV =      0 
   LVSAT =      0 
   NVSAT =      0 
   PVSAT =      0 
   LKSATIV =      0 
   NKSATIV =      0 
   PKSATIV =      0 
   LMEXP =      0 
   NMEXP =      0 
   PMEXP =      0 
   LPTWG =      0 
   NPTWG =      0 
   PPTWG =      0 
   LTHETASAT =      0 
   NTHETASAT =      0 
   PTHETASAT =      0 
   LU0 =      0 
   NU0 =      0 
   PU0 =      0 
   LUP =      0 
   NUP =      0 
   PUP =      0 
   LUA =      0 
   NUA =      0 
   PUA =      0 
   LEU =      0 
   NEU =      0 
   PEU =      0 
   LUD =      0 
   NUD =      0 
   PUD =      0 
   LUCS =      0 
   NUCS =      0 
   PUCS =      0 
   LPCLM =      0 
   NPCLM =      0 
   PPCLM =      0 
   LPCLMCV =      0 
   NPCLMCV =      0 
   PPCLMCV =      0 
   LRDSW =      0 
   NRDSW =      0 
   PRDSW =      0 
   LRSW =      0 
   NRSW =      0 
   PRSW =      0 
   LRDW =      0 
   NRDW =      0 
   PRDW =      0 
   LPRWG =      0 
   NPRWG =      0 
   PPRWG =      0 
   LWR =      0 
   NWR =      0 
   PWR =      0 
   LPDIBL1 =      0 
   NPDIBL1 =      0 
   PPDIBL1 =      0 
   LPDIBL2 =      0 
   NPDIBL2 =      0 
   PPDIBL2 =      0 
   LDROUT =      0 
   NDROUT =      0 
   PDROUT =      0 
   LPVAG =      0 
   NPVAG =      0 
   PPVAG =      0 
   LAIGBINV =      0 
   NAIGBINV =      0 
   PAIGBINV =      0 
   LBIGBINV =      0 
   NBIGBINV =      0 
   PBIGBINV =      0 
   LCIGBINV =      0 
   NCIGBINV =      0 
   PCIGBINV =      0 
   LEIGBINV =      0 
   NEIGBINV =      0 
   PEIGBINV =      0 
   LNIGBINV =      0 
   NNIGBINV =      0 
   PNIGBINV =      0 
   LAIGC =      0 
   NAIGC =      0 
   PAIGC =      0 
   LBIGC =      0 
   NBIGC =      0 
   PBIGC =      0 
   LCIGC =      0 
   NCIGC =      0 
   PCIGC =      0 
   LNIGC =      0 
   NNIGC =      0 
   PNIGC =      0 
   LAIGS =      0 
   NAIGS =      0 
   PAIGS =      0 
   LBIGS =      0 
   NBIGS =      0 
   PBIGS =      0 
   LCIGS =      0 
   NCIGS =      0 
   PCIGS =      0 
   LAIGD =      0 
   NAIGD =      0 
   PAIGD =      0 
   LBIGD =      0 
   NBIGD =      0 
   PBIGD =      0 
   LCIGD =      0 
   NCIGD =      0 
   PCIGD =      0 
   LPOXEDGE =      0 
   NPOXEDGE =      0 
   PPOXEDGE =      0 
   LAGIDL =      0 
   NAGIDL =      0 
   PAGIDL =      0 
   LBGIDL =      0 
   NBGIDL =      0 
   PBGIDL =      0 
   LEGIDL =      0 
   NEGIDL =      0 
   PEGIDL =      0 
   LAGISL =      0 
   NAGISL =      0 
   PAGISL =      0 
   LBGISL =      0 
   NBGISL =      0 
   PBGISL =      0 
   LEGISL =      0 
   NEGISL =      0 
   PEGISL =      0 
   LALPHA0 =      0 
   NALPHA0 =      0 
   PALPHA0 =      0 
   LALPHA1 =      0 
   NALPHA1 =      0 
   PALPHA1 =      0 
   LBETA0 =      0 
   NBETA0 =      0 
   PBETA0 =      0 
   LALPHAII =      0 
   NALPHAII =      0 
   PALPHAII =      0 
   LBETAII0 =      0 
   NBETAII0 =      0 
   PBETAII0 =      0 
   LBETAII1 =      0 
   NBETAII1 =      0 
   PBETAII1 =      0 
   LBETAII2 =      0 
   NBETAII2 =      0 
   PBETAII2 =      0 
   LESATII =      0 
   NESATII =      0 
   PESATII =      0 
   LLII =      0 
   NLII =      0 
   PLII =      0 
   LSII0 =      0 
   NSII0 =      0 
   PSII0 =      0 
   LSII1 =      0 
   NSII1 =      0 
   PSII1 =      0 
   LSII2 =      0 
   NSII2 =      0 
   PSII2 =      0 
   LSIID =      0 
   NSIID =      0 
   PSIID =      0 
   LCFS =      0 
   NCFS =      0 
   PCFS =      0 
   LCFD =      0 
   NCFD =      0 
   PCFD =      0 
   LCOVS =      0 
   NCOVS =      0 
   PCOVS =      0 
   LCOVD =      0 
   NCOVD =      0 
   PCOVD =      0 
   LCGSL =      0 
   NCGSL =      0 
   PCGSL =      0 
   LCGDL =      0 
   NCGDL =      0 
   PCGDL =      0 
   LCKAPPAS =      0 
   NCKAPPAS =      0 
   PCKAPPAS =      0 
   LCKAPPAD =      0 
   NCKAPPAD =      0 
   PCKAPPAD =      0 
   LCGBL =      0 
   NCGBL =      0 
   PCGBL =      0 
   LCKAPPAB =      0 
   NCKAPPAB =      0 
   PCKAPPAB =      0 
   LNTGEN =      0 
   NNTGEN =      0 
   PNTGEN =      0 
   LAIGEN =      0 
   NAIGEN =      0 
   PAIGEN =      0 
   LBIGEN =      0 
   NBIGEN =      0 
   PBIGEN =      0 
   LXRCRG1 =      0 
   NXRCRG1 =      0 
   PXRCRG1 =      0 
   LXRCRG2 =      0 
   NXRCRG2 =      0 
   PXRCRG2 =      0 
   LINTNOI =      0 
   NINTNOI =      0 
   PINTNOI =      0 
   LUTE =      0 
   NUTE =      0 
   PUTE =      0 
   LUTL =      0 
   NUTL =      0 
   PUTL =      0 
   LUA1 =      0 
   NUA1 =      0 
   PUA1 =      0 
   LUD1 =      0 
   NUD1 =      0 
   PUD1 =      0 
   LUCSTE =      0 
   NUCSTE =      0 
   PUCSTE =      0 
   LPTWGT =      0 
   NPTWGT =      0 
   PPTWGT =      0 
   LAT =      0 
   NAT =      0 
   PAT =      0 
   LSTTHETASAT =      0 
   NSTTHETASAT =      0 
   PSTTHETASAT =      0 
   LPRT =      0 
   NPRT =      0 
   PPRT =      0 
   LIIT =      0 
   NIIT =      0 
   PIIT =      0 
   LTII =      0 
   NTII =      0 
   PTII =      0 
   LTGIDL =      0 
   NTGIDL =      0 
   PTGIDL =      0 
   LIGT =      0 
   NIGT =      0 
   PIGT =      0 
   L = 1.1e-08 m
   D =  4e-08 m
   TFIN = 6.5e-09 m
   FPITCH = 2.2e-08 m
   NF = 1 
   NFIN = 1 
   NGCON = 1 
   ASEO =      0 m^2
   ADEO =      0 m^2
   PSEO =      0 m
   PDEO =      0 m
   ASEJ =      0 m^2
   ADEJ =      0 m^2
   PSEJ =      0 m
   PDEJ =      0 m
   CGSP =      0 F
   CGDP =      0 F
   CDSP =      0 F
   NRS =      0 
   NRD =      0 
   LRSD = 1.1e-08 m
   XL =      0 m
   DELVTRAND =      0 
   U0MULT =      1 
   IDS0MULT =      1 
   Lmin =  1e-08 m
   Lmax =  3e-08 m
   NFINmin = 0 
   NFINmax = 1 
   LVSAT1 =      0 
   NVSAT1 =      0 
   PVSAT1 =      0 
   LETAMOB =      0 
   NETAMOB =      0 
   PETAMOB =      0 
   LPCLMG =      0 
   NPCLMG =      0 
   PPCLMG =      0 
   LVASAT =      0 
   NVASAT =      0 
   PVASAT =      0 
   LAIGBACC =      0 
   NAIGBACC =      0 
   PAIGBACC =      0 
   LBIGBACC =      0 
   NBIGBACC =      0 
   PBIGBACC =      0 
   LCIGBACC =      0 
   NCIGBACC =      0 
   PCIGBACC =      0 
   LNIGBACC =      0 
   NNIGBACC =      0 
   PNIGBACC =      0 
 Model Name: nfet 
 BSIM-MG BULK Model(Level72)
   VERSION = 105.03  
   DEVTYPE = 1 
   BULKMOD = 1  
   COREMOD = 0 
   GEOMOD = 1 
   RDSMOD = 1 
   IGCMOD = 1 
   IGBMOD = 1 
   GIDLMOD = 0 
   IIMOD = 0 
   NQSMOD = 0 
   SHMOD = 0 
   RGATEMOD = 0 
   RGEOMOD = 1 
   CGEOMOD = 2 
   CAPMOD = 0 
   LINT =  2e-10 m
   LL =      0 m^(LLN+1)
   LLN =      1 
   DLC =      0 m
   DLBIN =      0 
   LLC =      0 m^(LLN+1)
   EOT = 6.2e-10 m
   TOXP = 1.15e-09 m
   EOTBOX = 1.4e-07 m
   HFIN = 1.8e-08 m
   FECH =      1 
   DELTAW =      0 m
   FECHCV =      1 
   DELTAWCV =      0 m
   NBODY =  1e+22 m^-3
   NSD =  3e+26 m^-3
   PHIG =  4.424 eV
   EPSROX =    3.9 
   EPSRSUB =   11.9 
   EASUB =   4.05 eV
   NI0SUB = 1.1e+16 m^-3
   BG0SUB =   1.12 eV
   NC0SUB = 2.86e+25 m^-3
   NGATE =      0 m^-3
   CIT = 1.3e-05 F/m^2
   CDSC =  0.039 F/m^2
   CDSCD =  0.007 F/m^2
   CDSCDR =  0.007 
   DVT0 =   0.01 
   DVT1 =   0.69 
   PHIN =   0.05 V
   ETA0 = 0.6785 
   ETA0R = 0.6785 
   DSUB =    0.9 
   K1RSCE =      0 V^1/2
   LPE0 =  5e-09 m
   DVTSHIFT =      0 
   QMFACTOR =      0 
   QMTCENIV =      0 
   QMTCENCV =      0 
   AQMTCEN =      0 
   BQMTCEN = 1.2e-08 
   ETAQM =   0.54 
   QM0 = 0.001143 
   PQM =   0.66 
   QM0ACC =  0.001 
   PQMACC =   0.66 
   VSAT = 1.6e+05 
   AVSAT =      0 
   BVSAT =  1e-07 
   VSAT1 = 1.6e+05 
   AVSAT1 =      0 
   BVSAT1 =  1e-07 
   DELTAVSAT =      1 
   KSATIV =    0.8 
   MEXP =      3 
   AMEXP =      0 
   BMEXP =      1 
   PTWG =      0 
   APTWG =      0 
   BPTWG =  1e-07 
   AT = -0.00156 
   TMEXP =      0 
   PTWGT =  0.004 
   U0 =  0.065 
   ETAMOB =      2 
   UP =      0 
   LPA =      1 
   UA =    0.3 
   AUA =      0 
   BUA =  1e-07 
   EU =    1.8 
   AEU =      0 
   BEU =  1e-07 
   UD =      0 
   AUD =      0 
   BUD =  5e-08 
   UCS =      0 
   UTE =      0 
   UTL = -0.0015 
   UA1 = 0.001032 
   UD1 =      0 
   UCSTE = -0.00478 
   RDSWMIN =      0 
   RDSW =    100 
   ARDSW =      0 
   BRDSW =  1e-07 
   RSWMIN =      0 
   RSW =      0 
   ARSW =      0 
   BRSW =  1e-07 
   RDWMIN =      0 
   RDW =      0 
   ARDW =      0 
   BRDW =  1e-07 
   PRWG =      0 
   WR =      1 
   PRT =  0.001 
   PDIBL1 =    1.3 
   PDIBL2 = 0.0002 
   DROUT =   1.06 
   PVAG =      1 
   PCLM =    0.2 
   APCLM =      0 
   BPCLM =  1e-07 
   PCLMG =      0 
   VASAT =    0.6 
   PCLMCV =  0.013 
   PCLMGCV =      0 
   VASATCV =    0.2 
   RGEXT =      0 ohm
   RGFIN =  0.001 ohm
   RSHS =      0 ohm
   RSHD =      0 ohm
   HEPI =  8e-09 m
   TSILI =  7e-09 m
   RHOC =  4e-13 ohm/m^2
   RHORSD =      1 ohm/m
   RHOEXT =      1 ohm/m
   CRATIO =    0.5 
   DELTAPRSD =      0 m
   SDTERM = 0 
   LSP = 2.2e-09 m
   LDG =  2e-09 m
   EPSRSP =    3.9 
   TGATE = 7.5e-09 m
   TMASK =      0 m
   ASILIEND =      0 m^2
   ARSDEND =      0 m^2
   PRSDEND =      0 m
   NSDE =  9e+25 m^-3
   RGEOA =      1 
   RGEOB =      0 m^-1
   RGEOC =      0 m^-1
   RGEOD =      0 m^-1
   RGEOE =      0 m^-1
   CGEOA =      1 
   CGEOB =      0 m^-1
   CGEOC =      0 m^-1
   CGEOD =      0 m^-1
   CGEOE =      1 
   AIGBINV = 0.0111 (Fs^2/g)^0.5m^-1
   BIGBINV =   0.03 (Fs^2/g)^0.5m^-1
   CIGBINV =  0.006 V^-1
   EIGBINV =    1.1 V
   NIGBINV =    1.2 
   AIGBACC = 0.0149 
   BIGBACC = 0.000949 
   CIGBACC =  0.075 
   NIGBACC =      3 
   AIGC = 0.0136 (Fs^2/g)^0.5m^-1
   BIGC = 0.00171 (Fs^2/g)^0.5m^-1V^-1
   CIGC =  0.075 V^-1
   NIGC =      1 
   DLCIGS =      0 m
   AIGS = 0.0136 (Fs^2/g)^0.5m^-1
   BIGS = 0.00171 (Fs^2/g)^0.5m^-1V^-1
   CIGS =  0.075 V^-1
   DLCIGD =      0 m
   AIGD = 0.0136 (Fs^2/g)^0.5m^-1
   BIGD = 0.00171 (Fs^2/g)^0.5m^-1V^-1
   CIGD =  0.075 V^-1
   POXEDGE =      1 
   AGIDL = 5.729e-12 ohm^-1
   BGIDL =  3e+08 V/m
   EGIDL =    0.1 V
   AGISL = 5.729e-12 ohm^-1
   BGISL =  3e+08 V/m
   EGISL =    0.1 V
   ALPHA0 =      0 mV^-1
   ALPHA1 =      0 V^-1
   BETA0 =     30 V^-1
   ALPHAII =      0 
   BETAII0 =      0 V^-1
   BETAII1 =      0 
   BETAII2 =    0.1 V
   ESATII =  1e+07 V/m
   LII =  5e-10 V/m
   SII0 =    0.5 V^-1
   SII1 =    0.1 
   SII2 =      0 V
   SIID =      0 V
   EOTACC = 6.2e-10 m
   DELVFBACC =      0 V
   CFS = 2.56e-11 F/m
   CFD = 2.65e-11 F/m
   COVS = 2.5e-11 F/m
   COVD = 2.5e-11 F/m
   CGSO =      0 F/m
   CGDO =      0 F/m
   CGSL =      0 F/m
   CGDL =      0 F/m
   CKAPPAS =    0.6 V
   CKAPPAD =    0.6 V
   CGBO =      0 F/m
   CGBL =      0 F/m
   CKAPPAB =    0.6 V
   CSDESW =      0 F/m
   CJS = 0.0005 F/m^2
   CJD = 0.0005 F/m^2
   CJSWS =  5e-10 F/m
   CJSWD =  5e-10 F/m
   CJSWGS =      0 F/m
   CJSWGD =      0 F/m
   PBS =      1 V
   PBD =      1 V
   PBSWS =      1 V
   PBSWD =      1 V
   PBSWGS =      1 V
   PBSWGD =      1 V
   MJS, =    0.5 
   MJD =    0.5 
   MJSWS =   0.33 
   MJSWD =   0.33 
   MJSWGS =   0.33 
   MJSWGD =   0.33 
   SJS =      0 
   SJD =      0 
   SJSWS =      0 
   SJSWD =      0 
   SJSWGS =      0 
   SJSWGD =      0 
   MJS2 =  0.125 
   MJD2 =  0.125 
   MJSWS2 =   0.33 
   MJSWD2 =   0.33 
   MJSWGS2 =   0.33 
   MJSWGD2 =   0.33 
   JSS = 0.0001 A/m^2
   JSD = 0.0001 A/m^2
   JSWS =      0 A/m
   JSWD =      0 A/m
   JSWGS =      0 A/m
   JSWGD =      0 A/m
   NJS =      1 
   NJD =      1 
   IJTHSFWD =    0.1 A
   IJTHDFWD =    0.1 A
   IJTHSREV =    0.1 A
   IJTHDREV =    0.1 A
   BVS =     10 V
   BVD =     10 V
   XJBVS =      1 
   XJBVD =      1 
   JTSS =      0 A/m^2
   JTSD =      0 A/m^2
   JTSSWS =      0 A/m
   JTSSWD =      0 A/m
   JTSSWGS =      0 A/m
   JTSSWGD =      0 A/m
   JTWEFF =      0 m
   NJTS =     20 
   NJTSD =     20 
   NJTSSW =     20 
   NJTSSWD =     20 
   NJTSSWG =     20 
   NJTSSWGD =     20 
   VTSS =     10 V
   VTSD =     10 V
   VTSSWS =     10 V
   VTSSWD =     10 V
   VTSSWGS =     10 V
   VTSSWGD =     10 V
   LINTIGEN =      0 m
   NTGEN =      1 
   AIGEN =      0 m^-3V^-1
   BIGEN =      0 m^-3V^-3
   XRCRG1 =     12 
   XRCRG2 =      1 
   NSEG = 5 
   EF =      1 
   EM = 4.1e+07 V/m
   NOIA = 6.25e+39 eV^-1s^1-EFm^-3
   NOIB = 3.125e+24 eV^-1s^1-EFm^-1
   NOIC = 8.75e+07 eV^-1s^1-EFm
   NTNOI =      1 
   TNOM =  300.1 K
   TBGASUB = 0.000702 eV/K
   TBGBSUB =   1108 K
   KT1 =      0 V
   KT1L =      0 Vm
   IIT =   -0.5 
   TII =      0 
   TGIDL = -0.0003 K^-1
   IGT =    2.5 
   TCJ =      0 K^-1
   TCJSW =      0 K^-1
   TCJSWG =      0 K^-1
   TPB =      0 K^-1
   TPBSW =      0 K^-1
   TPBSWG =      0 K^-1
   XTIS =      3 
   XTID =      3 
   XTSS =   0.02 
   XTSD =   0.02 
   XTSSWS =   0.02 
   XTSSWD =   0.02 
   XTSSWGS =   0.02 
   XTSSWGD =   0.02 
   TNJTS =      0 
   TNJTSD =      0 
   TNJTSSW =      0 
   TNJTSSWD =      0 
   TNJTSSWG =      0 
   TNJTSSWGD =      0 
   RTH0 =   0.01 ohm
   CTH0 =  1e-05 F
   WTH0 =      0 m
   LNBODY =      0 
   NNBODY =      0 
   PNBODY =      0 
   LPHIG =      0 
   NPHIG =      0 
   PPHIG =      0 
   LNGATE =      0 
   NNGATE =      0 
   PNGATE =      0 
   LCIT =      0 
   NCIT =      0 
   PCIT =      0 
   LCDSC =      0 
   NCDSC =      0 
   PCDSC =      0 
   LCDSCD =      0 
   NCDSCD =      0 
   PCDSCD =      0 
   LCDSCDR =      0 
   NCDSCDR =      0 
   PCDSCDR =      0 
   LDVT0 =      0 
   NDVT0 =      0 
   PDVT0 =      0 
   LDVT1 =      0 
   NDVT1 =      0 
   PDVT1 =      0 
   LPHIN =      0 
   NPHIN =      0 
   PPHIN =      0 
   LETA0 =      0 
   NETA0 =      0 
   PETA0 =      0 
   LETA0R =      0 
   NETA0R =      0 
   PETA0R =      0 
   LDSUB =      0 
   NDSUB =      0 
   PDSUB =      0 
   LK1RSCE =      0 
   NK1RSCE =      0 
   PK1RSCE =      0 
   LLPE0 =      0 
   NLPE0 =      0 
   PLPE0 =      0 
   LQMFACTOR =      0 
   NQMFACTOR =      0 
   PQMFACTOR =      0 
   LQMTCENIV =      0 
   NQMTCENIV =      0 
   PQMTCENIV =      0 
   LQMTCENCV =      0 
   NQMTCENCV =      0 
   PQMTCENCV =      0 
   LVSAT =      0 
   NVSAT =      0 
   PVSAT =      0 
   LKSATIV =      0 
   NKSATIV =      0 
   PKSATIV =      0 
   LMEXP =      0 
   NMEXP =      0 
   PMEXP =      0 
   LPTWG =      0 
   NPTWG =      0 
   PPTWG =      0 
   LTHETASAT =      0 
   NTHETASAT =      0 
   PTHETASAT =      0 
   LU0 =      0 
   NU0 =      0 
   PU0 =      0 
   LUP =      0 
   NUP =      0 
   PUP =      0 
   LUA =      0 
   NUA =      0 
   PUA =      0 
   LEU =      0 
   NEU =      0 
   PEU =      0 
   LUD =      0 
   NUD =      0 
   PUD =      0 
   LUCS =      0 
   NUCS =      0 
   PUCS =      0 
   LPCLM =      0 
   NPCLM =      0 
   PPCLM =      0 
   LPCLMCV =      0 
   NPCLMCV =      0 
   PPCLMCV =      0 
   LRDSW =      0 
   NRDSW =      0 
   PRDSW =      0 
   LRSW =      0 
   NRSW =      0 
   PRSW =      0 
   LRDW =      0 
   NRDW =      0 
   PRDW =      0 
   LPRWG =      0 
   NPRWG =      0 
   PPRWG =      0 
   LWR =      0 
   NWR =      0 
   PWR =      0 
   LPDIBL1 =      0 
   NPDIBL1 =      0 
   PPDIBL1 =      0 
   LPDIBL2 =      0 
   NPDIBL2 =      0 
   PPDIBL2 =      0 
   LDROUT =      0 
   NDROUT =      0 
   PDROUT =      0 
   LPVAG =      0 
   NPVAG =      0 
   PPVAG =      0 
   LAIGBINV =      0 
   NAIGBINV =      0 
   PAIGBINV =      0 
   LBIGBINV =      0 
   NBIGBINV =      0 
   PBIGBINV =      0 
   LCIGBINV =      0 
   NCIGBINV =      0 
   PCIGBINV =      0 
   LEIGBINV =      0 
   NEIGBINV =      0 
   PEIGBINV =      0 
   LNIGBINV =      0 
   NNIGBINV =      0 
   PNIGBINV =      0 
   LAIGC =      0 
   NAIGC =      0 
   PAIGC =      0 
   LBIGC =      0 
   NBIGC =      0 
   PBIGC =      0 
   LCIGC =      0 
   NCIGC =      0 
   PCIGC =      0 
   LNIGC =      0 
   NNIGC =      0 
   PNIGC =      0 
   LAIGS =      0 
   NAIGS =      0 
   PAIGS =      0 
   LBIGS =      0 
   NBIGS =      0 
   PBIGS =      0 
   LCIGS =      0 
   NCIGS =      0 
   PCIGS =      0 
   LAIGD =      0 
   NAIGD =      0 
   PAIGD =      0 
   LBIGD =      0 
   NBIGD =      0 
   PBIGD =      0 
   LCIGD =      0 
   NCIGD =      0 
   PCIGD =      0 
   LPOXEDGE =      0 
   NPOXEDGE =      0 
   PPOXEDGE =      0 
   LAGIDL =      0 
   NAGIDL =      0 
   PAGIDL =      0 
   LBGIDL =      0 
   NBGIDL =      0 
   PBGIDL =      0 
   LEGIDL =      0 
   NEGIDL =      0 
   PEGIDL =      0 
   LAGISL =      0 
   NAGISL =      0 
   PAGISL =      0 
   LBGISL =      0 
   NBGISL =      0 
   PBGISL =      0 
   LEGISL =      0 
   NEGISL =      0 
   PEGISL =      0 
   LALPHA0 =      0 
   NALPHA0 =      0 
   PALPHA0 =      0 
   LALPHA1 =      0 
   NALPHA1 =      0 
   PALPHA1 =      0 
   LBETA0 =      0 
   NBETA0 =      0 
   PBETA0 =      0 
   LALPHAII =      0 
   NALPHAII =      0 
   PALPHAII =      0 
   LBETAII0 =      0 
   NBETAII0 =      0 
   PBETAII0 =      0 
   LBETAII1 =      0 
   NBETAII1 =      0 
   PBETAII1 =      0 
   LBETAII2 =      0 
   NBETAII2 =      0 
   PBETAII2 =      0 
   LESATII =      0 
   NESATII =      0 
   PESATII =      0 
   LLII =      0 
   NLII =      0 
   PLII =      0 
   LSII0 =      0 
   NSII0 =      0 
   PSII0 =      0 
   LSII1 =      0 
   NSII1 =      0 
   PSII1 =      0 
   LSII2 =      0 
   NSII2 =      0 
   PSII2 =      0 
   LSIID =      0 
   NSIID =      0 
   PSIID =      0 
   LCFS =      0 
   NCFS =      0 
   PCFS =      0 
   LCFD =      0 
   NCFD =      0 
   PCFD =      0 
   LCOVS =      0 
   NCOVS =      0 
   PCOVS =      0 
   LCOVD =      0 
   NCOVD =      0 
   PCOVD =      0 
   LCGSL =      0 
   NCGSL =      0 
   PCGSL =      0 
   LCGDL =      0 
   NCGDL =      0 
   PCGDL =      0 
   LCKAPPAS =      0 
   NCKAPPAS =      0 
   PCKAPPAS =      0 
   LCKAPPAD =      0 
   NCKAPPAD =      0 
   PCKAPPAD =      0 
   LCGBL =      0 
   NCGBL =      0 
   PCGBL =      0 
   LCKAPPAB =      0 
   NCKAPPAB =      0 
   PCKAPPAB =      0 
   LNTGEN =      0 
   NNTGEN =      0 
   PNTGEN =      0 
   LAIGEN =      0 
   NAIGEN =      0 
   PAIGEN =      0 
   LBIGEN =      0 
   NBIGEN =      0 
   PBIGEN =      0 
   LXRCRG1 =      0 
   NXRCRG1 =      0 
   PXRCRG1 =      0 
   LXRCRG2 =      0 
   NXRCRG2 =      0 
   PXRCRG2 =      0 
   LINTNOI =      0 
   NINTNOI =      0 
   PINTNOI =      0 
   LUTE =      0 
   NUTE =      0 
   PUTE =      0 
   LUTL =      0 
   NUTL =      0 
   PUTL =      0 
   LUA1 =      0 
   NUA1 =      0 
   PUA1 =      0 
   LUD1 =      0 
   NUD1 =      0 
   PUD1 =      0 
   LUCSTE =      0 
   NUCSTE =      0 
   PUCSTE =      0 
   LPTWGT =      0 
   NPTWGT =      0 
   PPTWGT =      0 
   LAT =      0 
   NAT =      0 
   PAT =      0 
   LSTTHETASAT =      0 
   NSTTHETASAT =      0 
   PSTTHETASAT =      0 
   LPRT =      0 
   NPRT =      0 
   PPRT =      0 
   LIIT =      0 
   NIIT =      0 
   PIIT =      0 
   LTII =      0 
   NTII =      0 
   PTII =      0 
   LTGIDL =      0 
   NTGIDL =      0 
   PTGIDL =      0 
   LIGT =      0 
   NIGT =      0 
   PIGT =      0 
   L = 1.1e-08 m
   D =  4e-08 m
   TFIN = 6.5e-09 m
   FPITCH = 2.2e-08 m
   NF = 1 
   NFIN = 1 
   NGCON = 1 
   ASEO =      0 m^2
   ADEO =      0 m^2
   PSEO =      0 m
   PDEO =      0 m
   ASEJ =      0 m^2
   ADEJ =      0 m^2
   PSEJ =      0 m
   PDEJ =      0 m
   CGSP =      0 F
   CGDP =      0 F
   CDSP =      0 F
   NRS =      0 
   NRD =      0 
   LRSD = 1.1e-08 m
   XL =      0 m
   DELVTRAND =      0 
   U0MULT =      1 
   IDS0MULT =      1 
   Lmin =  1e-08 m
   Lmax =  3e-08 m
   NFINmin = 0 
   NFINmax = 1 
   LVSAT1 =      0 
   NVSAT1 =      0 
   PVSAT1 =      0 
   LETAMOB =      0 
   NETAMOB =      0 
   PETAMOB =      0 
   LPCLMG =      0 
   NPCLMG =      0 
   PPCLMG =      0 
   LVASAT =      0 
   NVASAT =      0 
   PVASAT =      0 
   LAIGBACC =      0 
   NAIGBACC =      0 
   PAIGBACC =      0 
   LBIGBACC =      0 
   NBIGBACC =      0 
   PBIGBACC =      0 
   LCIGBACC =      0 
   NCIGBACC =      0 
   PCIGBACC =      0 
   LNIGBACC =      0 
   NNIGBACC =      0 
   PNIGBACC =      0 
 Model Name: pfet 
 BSIM-MG BULK Model(Level72)
   VERSION = 105.03  
   DEVTYPE = -1 
   BULKMOD = 1  
   COREMOD = 0 
   GEOMOD = 1 
   RDSMOD = 1 
   IGCMOD = 1 
   IGBMOD = 1 
   GIDLMOD = 0 
   IIMOD = 0 
   NQSMOD = 0 
   SHMOD = 0 
   RGATEMOD = 0 
   RGEOMOD = 1 
   CGEOMOD = 2 
   CAPMOD = 0 
   LINT =  2e-10 m
   LL =      0 m^(LLN+1)
   LLN =      1 
   DLC =      0 m
   DLBIN =      0 
   LLC =      0 m^(LLN+1)
   EOT = 6.2e-10 m
   TOXP = 1.15e-09 m
   EOTBOX = 1.4e-07 m
   HFIN = 1.8e-08 m
   FECH =      1 
   DELTAW =      0 m
   FECHCV =      1 
   DELTAWCV =      0 m
   NBODY =  1e+22 m^-3
   NSD =  3e+26 m^-3
   PHIG =  4.747 eV
   EPSROX =    3.9 
   EPSRSUB =   11.9 
   EASUB =   4.05 eV
   NI0SUB = 1.1e+16 m^-3
   BG0SUB =   1.12 eV
   NC0SUB = 2.86e+25 m^-3
   NGATE =      0 m^-3
   CIT = 1.3e-05 F/m^2
   CDSC =  0.039 F/m^2
   CDSCD =  0.007 F/m^2
   CDSCDR =  0.007 
   DVT0 =   0.01 
   DVT1 =   0.69 
   PHIN =   0.05 V
   ETA0 =   0.97 
   ETA0R =   0.97 
   DSUB =    0.9 
   K1RSCE =      0 V^1/2
   LPE0 =  5e-09 m
   DVTSHIFT =      0 
   QMFACTOR =      0 
   QMTCENIV =      0 
   QMTCENCV =      0 
   AQMTCEN =      0 
   BQMTCEN = 1.2e-08 
   ETAQM =   0.54 
   QM0 = 0.001143 
   PQM =   0.66 
   QM0ACC =  0.001 
   PQMACC =   0.66 
   VSAT = 1.53e+05 
   AVSAT =      0 
   BVSAT =  1e-07 
   VSAT1 = 1.53e+05 
   AVSAT1 =      0 
   BVSAT1 =  1e-07 
   DELTAVSAT =      1 
   KSATIV =    0.8 
   MEXP =      3 
   AMEXP =      0 
   BMEXP =      1 
   PTWG =      0 
   APTWG =      0 
   BPTWG =  1e-07 
   AT = -0.00156 
   TMEXP =      0 
   PTWGT =  0.004 
   U0 =  0.042 
   ETAMOB =      2 
   UP =      0 
   LPA =      1 
   UA =    0.3 
   AUA =      0 
   BUA =  1e-07 
   EU =    1.8 
   AEU =      0 
   BEU =  1e-07 
   UD =      0 
   AUD =      0 
   BUD =  5e-08 
   UCS =      0 
   UTE =      0 
   UTL = -0.0015 
   UA1 = 0.001032 
   UD1 =      0 
   UCSTE = -0.00478 
   RDSWMIN =      0 
   RDSW =    100 
   ARDSW =      0 
   BRDSW =  1e-07 
   RSWMIN =      0 
   RSW =      0 
   ARSW =      0 
   BRSW =  1e-07 
   RDWMIN =      0 
   RDW =      0 
   ARDW =      0 
   BRDW =  1e-07 
   PRWG =      0 
   WR =      1 
   PRT =  0.001 
   PDIBL1 =    1.3 
   PDIBL2 = 0.0002 
   DROUT =   1.06 
   PVAG =      1 
   PCLM =    0.2 
   APCLM =      0 
   BPCLM =  1e-07 
   PCLMG =      0 
   VASAT =    0.6 
   PCLMCV =  0.013 
   PCLMGCV =      0 
   VASATCV =    0.2 
   RGEXT =      0 ohm
   RGFIN =  0.001 ohm
   RSHS =      0 ohm
   RSHD =      0 ohm
   HEPI =  8e-09 m
   TSILI =  7e-09 m
   RHOC =  5e-13 ohm/m^2
   RHORSD =      1 ohm/m
   RHOEXT =      1 ohm/m
   CRATIO =    0.5 
   DELTAPRSD =      0 m
   SDTERM = 0 
   LSP = 2.2e-09 m
   LDG =  2e-09 m
   EPSRSP =    3.9 
   TGATE = 7.5e-09 m
   TMASK =      0 m
   ASILIEND =      0 m^2
   ARSDEND =      0 m^2
   PRSDEND =      0 m
   NSDE =  9e+25 m^-3
   RGEOA =      1 
   RGEOB =      0 m^-1
   RGEOC =      0 m^-1
   RGEOD =      0 m^-1
   RGEOE =      0 m^-1
   CGEOA =      1 
   CGEOB =      0 m^-1
   CGEOC =      0 m^-1
   CGEOD =      0 m^-1
   CGEOE =      1 
   AIGBINV = 0.0111 (Fs^2/g)^0.5m^-1
   BIGBINV =   0.03 (Fs^2/g)^0.5m^-1
   CIGBINV =  0.006 V^-1
   EIGBINV =    1.1 V
   NIGBINV =    1.2 
   AIGBACC = 0.0149 
   BIGBACC = 0.000949 
   CIGBACC =  0.075 
   NIGBACC =      3 
   AIGC = 0.0136 (Fs^2/g)^0.5m^-1
   BIGC = 0.00171 (Fs^2/g)^0.5m^-1V^-1
   CIGC =  0.075 V^-1
   NIGC =      1 
   DLCIGS =      0 m
   AIGS = 0.0136 (Fs^2/g)^0.5m^-1
   BIGS = 0.00171 (Fs^2/g)^0.5m^-1V^-1
   CIGS =  0.075 V^-1
   DLCIGD =      0 m
   AIGD = 0.0136 (Fs^2/g)^0.5m^-1
   BIGD = 0.00171 (Fs^2/g)^0.5m^-1V^-1
   CIGD =  0.075 V^-1
   POXEDGE =      1 
   AGIDL = 5.729e-12 ohm^-1
   BGIDL =  3e+08 V/m
   EGIDL =    0.1 V
   AGISL = 5.729e-12 ohm^-1
   BGISL =  3e+08 V/m
   EGISL =    0.1 V
   ALPHA0 =      0 mV^-1
   ALPHA1 =      0 V^-1
   BETA0 =     30 V^-1
   ALPHAII =      0 
   BETAII0 =      0 V^-1
   BETAII1 =      0 
   BETAII2 =    0.1 V
   ESATII =  1e+07 V/m
   LII =  5e-10 V/m
   SII0 =    0.5 V^-1
   SII1 =    0.1 
   SII2 =      0 V
   SIID =      0 V
   EOTACC = 6.2e-10 m
   DELVFBACC =      0 V
   CFS = 2.56e-11 F/m
   CFD = 2.65e-11 F/m
   COVS = 2.5e-11 F/m
   COVD = 2.5e-11 F/m
   CGSO =      0 F/m
   CGDO =      0 F/m
   CGSL =      0 F/m
   CGDL =      0 F/m
   CKAPPAS =    0.6 V
   CKAPPAD =    0.6 V
   CGBO =      0 F/m
   CGBL =      0 F/m
   CKAPPAB =    0.6 V
   CSDESW =      0 F/m
   CJS = 0.0005 F/m^2
   CJD = 0.0005 F/m^2
   CJSWS =  5e-10 F/m
   CJSWD =  5e-10 F/m
   CJSWGS =      0 F/m
   CJSWGD =      0 F/m
   PBS =      1 V
   PBD =      1 V
   PBSWS =      1 V
   PBSWD =      1 V
   PBSWGS =      1 V
   PBSWGD =      1 V
   MJS, =    0.5 
   MJD =    0.5 
   MJSWS =   0.33 
   MJSWD =   0.33 
   MJSWGS =   0.33 
   MJSWGD =   0.33 
   SJS =      0 
   SJD =      0 
   SJSWS =      0 
   SJSWD =      0 
   SJSWGS =      0 
   SJSWGD =      0 
   MJS2 =  0.125 
   MJD2 =  0.125 
   MJSWS2 =   0.33 
   MJSWD2 =   0.33 
   MJSWGS2 =   0.33 
   MJSWGD2 =   0.33 
   JSS = 0.0001 A/m^2
   JSD = 0.0001 A/m^2
   JSWS =      0 A/m
   JSWD =      0 A/m
   JSWGS =      0 A/m
   JSWGD =      0 A/m
   NJS =      1 
   NJD =      1 
   IJTHSFWD =    0.1 A
   IJTHDFWD =    0.1 A
   IJTHSREV =    0.1 A
   IJTHDREV =    0.1 A
   BVS =     10 V
   BVD =     10 V
   XJBVS =      1 
   XJBVD =      1 
   JTSS =      0 A/m^2
   JTSD =      0 A/m^2
   JTSSWS =      0 A/m
   JTSSWD =      0 A/m
   JTSSWGS =      0 A/m
   JTSSWGD =      0 A/m
   JTWEFF =      0 m
   NJTS =     20 
   NJTSD =     20 
   NJTSSW =     20 
   NJTSSWD =     20 
   NJTSSWG =     20 
   NJTSSWGD =     20 
   VTSS =     10 V
   VTSD =     10 V
   VTSSWS =     10 V
   VTSSWD =     10 V
   VTSSWGS =     10 V
   VTSSWGD =     10 V
   LINTIGEN =      0 m
   NTGEN =      1 
   AIGEN =      0 m^-3V^-1
   BIGEN =      0 m^-3V^-3
   XRCRG1 =     12 
   XRCRG2 =      1 
   NSEG = 5 
   EF =      1 
   EM = 4.1e+07 V/m
   NOIA = 6.25e+39 eV^-1s^1-EFm^-3
   NOIB = 3.125e+24 eV^-1s^1-EFm^-1
   NOIC = 8.75e+07 eV^-1s^1-EFm
   NTNOI =      1 
   TNOM =  300.1 K
   TBGASUB = 0.000702 eV/K
   TBGBSUB =   1108 K
   KT1 =      0 V
   KT1L =      0 Vm
   IIT =   -0.5 
   TII =      0 
   TGIDL = -0.0003 K^-1
   IGT =    2.5 
   TCJ =      0 K^-1
   TCJSW =      0 K^-1
   TCJSWG =      0 K^-1
   TPB =      0 K^-1
   TPBSW =      0 K^-1
   TPBSWG =      0 K^-1
   XTIS =      3 
   XTID =      3 
   XTSS =   0.02 
   XTSD =   0.02 
   XTSSWS =   0.02 
   XTSSWD =   0.02 
   XTSSWGS =   0.02 
   XTSSWGD =   0.02 
   TNJTS =      0 
   TNJTSD =      0 
   TNJTSSW =      0 
   TNJTSSWD =      0 
   TNJTSSWG =      0 
   TNJTSSWGD =      0 
   RTH0 =   0.01 ohm
   CTH0 =  1e-05 F
   WTH0 =      0 m
   LNBODY =      0 
   NNBODY =      0 
   PNBODY =      0 
   LPHIG =      0 
   NPHIG =      0 
   PPHIG =      0 
   LNGATE =      0 
   NNGATE =      0 
   PNGATE =      0 
   LCIT =      0 
   NCIT =      0 
   PCIT =      0 
   LCDSC =      0 
   NCDSC =      0 
   PCDSC =      0 
   LCDSCD =      0 
   NCDSCD =      0 
   PCDSCD =      0 
   LCDSCDR =      0 
   NCDSCDR =      0 
   PCDSCDR =      0 
   LDVT0 =      0 
   NDVT0 =      0 
   PDVT0 =      0 
   LDVT1 =      0 
   NDVT1 =      0 
   PDVT1 =      0 
   LPHIN =      0 
   NPHIN =      0 
   PPHIN =      0 
   LETA0 =      0 
   NETA0 =      0 
   PETA0 =      0 
   LETA0R =      0 
   NETA0R =      0 
   PETA0R =      0 
   LDSUB =      0 
   NDSUB =      0 
   PDSUB =      0 
   LK1RSCE =      0 
   NK1RSCE =      0 
   PK1RSCE =      0 
   LLPE0 =      0 
   NLPE0 =      0 
   PLPE0 =      0 
   LQMFACTOR =      0 
   NQMFACTOR =      0 
   PQMFACTOR =      0 
   LQMTCENIV =      0 
   NQMTCENIV =      0 
   PQMTCENIV =      0 
   LQMTCENCV =      0 
   NQMTCENCV =      0 
   PQMTCENCV =      0 
   LVSAT =      0 
   NVSAT =      0 
   PVSAT =      0 
   LKSATIV =      0 
   NKSATIV =      0 
   PKSATIV =      0 
   LMEXP =      0 
   NMEXP =      0 
   PMEXP =      0 
   LPTWG =      0 
   NPTWG =      0 
   PPTWG =      0 
   LTHETASAT =      0 
   NTHETASAT =      0 
   PTHETASAT =      0 
   LU0 =      0 
   NU0 =      0 
   PU0 =      0 
   LUP =      0 
   NUP =      0 
   PUP =      0 
   LUA =      0 
   NUA =      0 
   PUA =      0 
   LEU =      0 
   NEU =      0 
   PEU =      0 
   LUD =      0 
   NUD =      0 
   PUD =      0 
   LUCS =      0 
   NUCS =      0 
   PUCS =      0 
   LPCLM =      0 
   NPCLM =      0 
   PPCLM =      0 
   LPCLMCV =      0 
   NPCLMCV =      0 
   PPCLMCV =      0 
   LRDSW =      0 
   NRDSW =      0 
   PRDSW =      0 
   LRSW =      0 
   NRSW =      0 
   PRSW =      0 
   LRDW =      0 
   NRDW =      0 
   PRDW =      0 
   LPRWG =      0 
   NPRWG =      0 
   PPRWG =      0 
   LWR =      0 
   NWR =      0 
   PWR =      0 
   LPDIBL1 =      0 
   NPDIBL1 =      0 
   PPDIBL1 =      0 
   LPDIBL2 =      0 
   NPDIBL2 =      0 
   PPDIBL2 =      0 
   LDROUT =      0 
   NDROUT =      0 
   PDROUT =      0 
   LPVAG =      0 
   NPVAG =      0 
   PPVAG =      0 
   LAIGBINV =      0 
   NAIGBINV =      0 
   PAIGBINV =      0 
   LBIGBINV =      0 
   NBIGBINV =      0 
   PBIGBINV =      0 
   LCIGBINV =      0 
   NCIGBINV =      0 
   PCIGBINV =      0 
   LEIGBINV =      0 
   NEIGBINV =      0 
   PEIGBINV =      0 
   LNIGBINV =      0 
   NNIGBINV =      0 
   PNIGBINV =      0 
   LAIGC =      0 
   NAIGC =      0 
   PAIGC =      0 
   LBIGC =      0 
   NBIGC =      0 
   PBIGC =      0 
   LCIGC =      0 
   NCIGC =      0 
   PCIGC =      0 
   LNIGC =      0 
   NNIGC =      0 
   PNIGC =      0 
   LAIGS =      0 
   NAIGS =      0 
   PAIGS =      0 
   LBIGS =      0 
   NBIGS =      0 
   PBIGS =      0 
   LCIGS =      0 
   NCIGS =      0 
   PCIGS =      0 
   LAIGD =      0 
   NAIGD =      0 
   PAIGD =      0 
   LBIGD =      0 
   NBIGD =      0 
   PBIGD =      0 
   LCIGD =      0 
   NCIGD =      0 
   PCIGD =      0 
   LPOXEDGE =      0 
   NPOXEDGE =      0 
   PPOXEDGE =      0 
   LAGIDL =      0 
   NAGIDL =      0 
   PAGIDL =      0 
   LBGIDL =      0 
   NBGIDL =      0 
   PBGIDL =      0 
   LEGIDL =      0 
   NEGIDL =      0 
   PEGIDL =      0 
   LAGISL =      0 
   NAGISL =      0 
   PAGISL =      0 
   LBGISL =      0 
   NBGISL =      0 
   PBGISL =      0 
   LEGISL =      0 
   NEGISL =      0 
   PEGISL =      0 
   LALPHA0 =      0 
   NALPHA0 =      0 
   PALPHA0 =      0 
   LALPHA1 =      0 
   NALPHA1 =      0 
   PALPHA1 =      0 
   LBETA0 =      0 
   NBETA0 =      0 
   PBETA0 =      0 
   LALPHAII =      0 
   NALPHAII =      0 
   PALPHAII =      0 
   LBETAII0 =      0 
   NBETAII0 =      0 
   PBETAII0 =      0 
   LBETAII1 =      0 
   NBETAII1 =      0 
   PBETAII1 =      0 
   LBETAII2 =      0 
   NBETAII2 =      0 
   PBETAII2 =      0 
   LESATII =      0 
   NESATII =      0 
   PESATII =      0 
   LLII =      0 
   NLII =      0 
   PLII =      0 
   LSII0 =      0 
   NSII0 =      0 
   PSII0 =      0 
   LSII1 =      0 
   NSII1 =      0 
   PSII1 =      0 
   LSII2 =      0 
   NSII2 =      0 
   PSII2 =      0 
   LSIID =      0 
   NSIID =      0 
   PSIID =      0 
   LCFS =      0 
   NCFS =      0 
   PCFS =      0 
   LCFD =      0 
   NCFD =      0 
   PCFD =      0 
   LCOVS =      0 
   NCOVS =      0 
   PCOVS =      0 
   LCOVD =      0 
   NCOVD =      0 
   PCOVD =      0 
   LCGSL =      0 
   NCGSL =      0 
   PCGSL =      0 
   LCGDL =      0 
   NCGDL =      0 
   PCGDL =      0 
   LCKAPPAS =      0 
   NCKAPPAS =      0 
   PCKAPPAS =      0 
   LCKAPPAD =      0 
   NCKAPPAD =      0 
   PCKAPPAD =      0 
   LCGBL =      0 
   NCGBL =      0 
   PCGBL =      0 
   LCKAPPAB =      0 
   NCKAPPAB =      0 
   PCKAPPAB =      0 
   LNTGEN =      0 
   NNTGEN =      0 
   PNTGEN =      0 
   LAIGEN =      0 
   NAIGEN =      0 
   PAIGEN =      0 
   LBIGEN =      0 
   NBIGEN =      0 
   PBIGEN =      0 
   LXRCRG1 =      0 
   NXRCRG1 =      0 
   PXRCRG1 =      0 
   LXRCRG2 =      0 
   NXRCRG2 =      0 
   PXRCRG2 =      0 
   LINTNOI =      0 
   NINTNOI =      0 
   PINTNOI =      0 
   LUTE =      0 
   NUTE =      0 
   PUTE =      0 
   LUTL =      0 
   NUTL =      0 
   PUTL =      0 
   LUA1 =      0 
   NUA1 =      0 
   PUA1 =      0 
   LUD1 =      0 
   NUD1 =      0 
   PUD1 =      0 
   LUCSTE =      0 
   NUCSTE =      0 
   PUCSTE =      0 
   LPTWGT =      0 
   NPTWGT =      0 
   PPTWGT =      0 
   LAT =      0 
   NAT =      0 
   PAT =      0 
   LSTTHETASAT =      0 
   NSTTHETASAT =      0 
   PSTTHETASAT =      0 
   LPRT =      0 
   NPRT =      0 
   PPRT =      0 
   LIIT =      0 
   NIIT =      0 
   PIIT =      0 
   LTII =      0 
   NTII =      0 
   PTII =      0 
   LTGIDL =      0 
   NTGIDL =      0 
   PTGIDL =      0 
   LIGT =      0 
   NIGT =      0 
   PIGT =      0 
   L = 1.1e-08 m
   D =  4e-08 m
   TFIN = 6.5e-09 m
   FPITCH = 2.2e-08 m
   NF = 1 
   NFIN = 1 
   NGCON = 1 
   ASEO =      0 m^2
   ADEO =      0 m^2
   PSEO =      0 m
   PDEO =      0 m
   ASEJ =      0 m^2
   ADEJ =      0 m^2
   PSEJ =      0 m
   PDEJ =      0 m
   CGSP =      0 F
   CGDP =      0 F
   CDSP =      0 F
   NRS =      0 
   NRD =      0 
   LRSD = 1.1e-08 m
   XL =      0 m
   DELVTRAND =      0 
   U0MULT =      1 
   IDS0MULT =      1 
   Lmin =  1e-08 m
   Lmax =  3e-08 m
   NFINmin = 0 
   NFINmax = 1 
   LVSAT1 =      0 
   NVSAT1 =      0 
   PVSAT1 =      0 
   LETAMOB =      0 
   NETAMOB =      0 
   PETAMOB =      0 
   LPCLMG =      0 
   NPCLMG =      0 
   PPCLMG =      0 
   LVASAT =      0 
   NVASAT =      0 
   PVASAT =      0 
   LAIGBACC =      0 
   NAIGBACC =      0 
   PAIGBACC =      0 
   LBIGBACC =      0 
   NBIGBACC =      0 
   PBIGBACC =      0 
   LCIGBACC =      0 
   NCIGBACC =      0 
   PCIGBACC =      0 
   LNIGBACC =      0 
   NNIGBACC =      0 
   PNIGBACC =      0 
 Model Name: nfet 
 BSIM-MG BULK Model(Level72)
   VERSION = 105.03  
   DEVTYPE = 1 
   BULKMOD = 1  
   COREMOD = 0 
   GEOMOD = 1 
   RDSMOD = 1 
   IGCMOD = 1 
   IGBMOD = 1 
   GIDLMOD = 0 
   IIMOD = 0 
   NQSMOD = 0 
   SHMOD = 0 
   RGATEMOD = 0 
   RGEOMOD = 1 
   CGEOMOD = 2 
   CAPMOD = 0 
   LINT =  2e-10 m
   LL =      0 m^(LLN+1)
   LLN =      1 
   DLC =      0 m
   DLBIN =      0 
   LLC =      0 m^(LLN+1)
   EOT = 6.2e-10 m
   TOXP = 1.15e-09 m
   EOTBOX = 1.4e-07 m
   HFIN = 1.8e-08 m
   FECH =      1 
   DELTAW =      0 m
   FECHCV =      1 
   DELTAWCV =      0 m
   NBODY =  1e+22 m^-3
   NSD =  3e+26 m^-3
   PHIG =  4.424 eV
   EPSROX =    3.9 
   EPSRSUB =   11.9 
   EASUB =   4.05 eV
   NI0SUB = 1.1e+16 m^-3
   BG0SUB =   1.12 eV
   NC0SUB = 2.86e+25 m^-3
   NGATE =      0 m^-3
   CIT = 1.3e-05 F/m^2
   CDSC =  0.039 F/m^2
   CDSCD =  0.007 F/m^2
   CDSCDR =  0.007 
   DVT0 =   0.01 
   DVT1 =   0.69 
   PHIN =   0.05 V
   ETA0 = 0.6785 
   ETA0R = 0.6785 
   DSUB =    0.9 
   K1RSCE =      0 V^1/2
   LPE0 =  5e-09 m
   DVTSHIFT =      0 
   QMFACTOR =      0 
   QMTCENIV =      0 
   QMTCENCV =      0 
   AQMTCEN =      0 
   BQMTCEN = 1.2e-08 
   ETAQM =   0.54 
   QM0 = 0.001143 
   PQM =   0.66 
   QM0ACC =  0.001 
   PQMACC =   0.66 
   VSAT = 1.6e+05 
   AVSAT =      0 
   BVSAT =  1e-07 
   VSAT1 = 1.6e+05 
   AVSAT1 =      0 
   BVSAT1 =  1e-07 
   DELTAVSAT =      1 
   KSATIV =    0.8 
   MEXP =      3 
   AMEXP =      0 
   BMEXP =      1 
   PTWG =      0 
   APTWG =      0 
   BPTWG =  1e-07 
   AT = -0.00156 
   TMEXP =      0 
   PTWGT =  0.004 
   U0 =  0.065 
   ETAMOB =      2 
   UP =      0 
   LPA =      1 
   UA =    0.3 
   AUA =      0 
   BUA =  1e-07 
   EU =    1.8 
   AEU =      0 
   BEU =  1e-07 
   UD =      0 
   AUD =      0 
   BUD =  5e-08 
   UCS =      0 
   UTE =      0 
   UTL = -0.0015 
   UA1 = 0.001032 
   UD1 =      0 
   UCSTE = -0.00478 
   RDSWMIN =      0 
   RDSW =    100 
   ARDSW =      0 
   BRDSW =  1e-07 
   RSWMIN =      0 
   RSW =      0 
   ARSW =      0 
   BRSW =  1e-07 
   RDWMIN =      0 
   RDW =      0 
   ARDW =      0 
   BRDW =  1e-07 
   PRWG =      0 
   WR =      1 
   PRT =  0.001 
   PDIBL1 =    1.3 
   PDIBL2 = 0.0002 
   DROUT =   1.06 
   PVAG =      1 
   PCLM =    0.2 
   APCLM =      0 
   BPCLM =  1e-07 
   PCLMG =      0 
   VASAT =    0.6 
   PCLMCV =  0.013 
   PCLMGCV =      0 
   VASATCV =    0.2 
   RGEXT =      0 ohm
   RGFIN =  0.001 ohm
   RSHS =      0 ohm
   RSHD =      0 ohm
   HEPI =  8e-09 m
   TSILI =  7e-09 m
   RHOC =  4e-13 ohm/m^2
   RHORSD =      1 ohm/m
   RHOEXT =      1 ohm/m
   CRATIO =    0.5 
   DELTAPRSD =      0 m
   SDTERM = 0 
   LSP = 2.2e-09 m
   LDG =  2e-09 m
   EPSRSP =    3.9 
   TGATE = 7.5e-09 m
   TMASK =      0 m
   ASILIEND =      0 m^2
   ARSDEND =      0 m^2
   PRSDEND =      0 m
   NSDE =  9e+25 m^-3
   RGEOA =      1 
   RGEOB =      0 m^-1
   RGEOC =      0 m^-1
   RGEOD =      0 m^-1
   RGEOE =      0 m^-1
   CGEOA =      1 
   CGEOB =      0 m^-1
   CGEOC =      0 m^-1
   CGEOD =      0 m^-1
   CGEOE =      1 
   AIGBINV = 0.0111 (Fs^2/g)^0.5m^-1
   BIGBINV =   0.03 (Fs^2/g)^0.5m^-1
   CIGBINV =  0.006 V^-1
   EIGBINV =    1.1 V
   NIGBINV =    1.2 
   AIGBACC = 0.0149 
   BIGBACC = 0.000949 
   CIGBACC =  0.075 
   NIGBACC =      3 
   AIGC = 0.0136 (Fs^2/g)^0.5m^-1
   BIGC = 0.00171 (Fs^2/g)^0.5m^-1V^-1
   CIGC =  0.075 V^-1
   NIGC =      1 
   DLCIGS =      0 m
   AIGS = 0.0136 (Fs^2/g)^0.5m^-1
   BIGS = 0.00171 (Fs^2/g)^0.5m^-1V^-1
   CIGS =  0.075 V^-1
   DLCIGD =      0 m
   AIGD = 0.0136 (Fs^2/g)^0.5m^-1
   BIGD = 0.00171 (Fs^2/g)^0.5m^-1V^-1
   CIGD =  0.075 V^-1
   POXEDGE =      1 
   AGIDL = 5.729e-12 ohm^-1
   BGIDL =  3e+08 V/m
   EGIDL =    0.1 V
   AGISL = 5.729e-12 ohm^-1
   BGISL =  3e+08 V/m
   EGISL =    0.1 V
   ALPHA0 =      0 mV^-1
   ALPHA1 =      0 V^-1
   BETA0 =     30 V^-1
   ALPHAII =      0 
   BETAII0 =      0 V^-1
   BETAII1 =      0 
   BETAII2 =    0.1 V
   ESATII =  1e+07 V/m
   LII =  5e-10 V/m
   SII0 =    0.5 V^-1
   SII1 =    0.1 
   SII2 =      0 V
   SIID =      0 V
   EOTACC = 6.2e-10 m
   DELVFBACC =      0 V
   CFS = 2.56e-11 F/m
   CFD = 2.65e-11 F/m
   COVS = 2.5e-11 F/m
   COVD = 2.5e-11 F/m
   CGSO =      0 F/m
   CGDO =      0 F/m
   CGSL =      0 F/m
   CGDL =      0 F/m
   CKAPPAS =    0.6 V
   CKAPPAD =    0.6 V
   CGBO =      0 F/m
   CGBL =      0 F/m
   CKAPPAB =    0.6 V
   CSDESW =      0 F/m
   CJS = 0.0005 F/m^2
   CJD = 0.0005 F/m^2
   CJSWS =  5e-10 F/m
   CJSWD =  5e-10 F/m
   CJSWGS =      0 F/m
   CJSWGD =      0 F/m
   PBS =      1 V
   PBD =      1 V
   PBSWS =      1 V
   PBSWD =      1 V
   PBSWGS =      1 V
   PBSWGD =      1 V
   MJS, =    0.5 
   MJD =    0.5 
   MJSWS =   0.33 
   MJSWD =   0.33 
   MJSWGS =   0.33 
   MJSWGD =   0.33 
   SJS =      0 
   SJD =      0 
   SJSWS =      0 
   SJSWD =      0 
   SJSWGS =      0 
   SJSWGD =      0 
   MJS2 =  0.125 
   MJD2 =  0.125 
   MJSWS2 =   0.33 
   MJSWD2 =   0.33 
   MJSWGS2 =   0.33 
   MJSWGD2 =   0.33 
   JSS = 0.0001 A/m^2
   JSD = 0.0001 A/m^2
   JSWS =      0 A/m
   JSWD =      0 A/m
   JSWGS =      0 A/m
   JSWGD =      0 A/m
   NJS =      1 
   NJD =      1 
   IJTHSFWD =    0.1 A
   IJTHDFWD =    0.1 A
   IJTHSREV =    0.1 A
   IJTHDREV =    0.1 A
   BVS =     10 V
   BVD =     10 V
   XJBVS =      1 
   XJBVD =      1 
   JTSS =      0 A/m^2
   JTSD =      0 A/m^2
   JTSSWS =      0 A/m
   JTSSWD =      0 A/m
   JTSSWGS =      0 A/m
   JTSSWGD =      0 A/m
   JTWEFF =      0 m
   NJTS =     20 
   NJTSD =     20 
   NJTSSW =     20 
   NJTSSWD =     20 
   NJTSSWG =     20 
   NJTSSWGD =     20 
   VTSS =     10 V
   VTSD =     10 V
   VTSSWS =     10 V
   VTSSWD =     10 V
   VTSSWGS =     10 V
   VTSSWGD =     10 V
   LINTIGEN =      0 m
   NTGEN =      1 
   AIGEN =      0 m^-3V^-1
   BIGEN =      0 m^-3V^-3
   XRCRG1 =     12 
   XRCRG2 =      1 
   NSEG = 5 
   EF =      1 
   EM = 4.1e+07 V/m
   NOIA = 6.25e+39 eV^-1s^1-EFm^-3
   NOIB = 3.125e+24 eV^-1s^1-EFm^-1
   NOIC = 8.75e+07 eV^-1s^1-EFm
   NTNOI =      1 
   TNOM =  300.1 K
   TBGASUB = 0.000702 eV/K
   TBGBSUB =   1108 K
   KT1 =      0 V
   KT1L =      0 Vm
   IIT =   -0.5 
   TII =      0 
   TGIDL = -0.0003 K^-1
   IGT =    2.5 
   TCJ =      0 K^-1
   TCJSW =      0 K^-1
   TCJSWG =      0 K^-1
   TPB =      0 K^-1
   TPBSW =      0 K^-1
   TPBSWG =      0 K^-1
   XTIS =      3 
   XTID =      3 
   XTSS =   0.02 
   XTSD =   0.02 
   XTSSWS =   0.02 
   XTSSWD =   0.02 
   XTSSWGS =   0.02 
   XTSSWGD =   0.02 
   TNJTS =      0 
   TNJTSD =      0 
   TNJTSSW =      0 
   TNJTSSWD =      0 
   TNJTSSWG =      0 
   TNJTSSWGD =      0 
   RTH0 =   0.01 ohm
   CTH0 =  1e-05 F
   WTH0 =      0 m
   LNBODY =      0 
   NNBODY =      0 
   PNBODY =      0 
   LPHIG =      0 
   NPHIG =      0 
   PPHIG =      0 
   LNGATE =      0 
   NNGATE =      0 
   PNGATE =      0 
   LCIT =      0 
   NCIT =      0 
   PCIT =      0 
   LCDSC =      0 
   NCDSC =      0 
   PCDSC =      0 
   LCDSCD =      0 
   NCDSCD =      0 
   PCDSCD =      0 
   LCDSCDR =      0 
   NCDSCDR =      0 
   PCDSCDR =      0 
   LDVT0 =      0 
   NDVT0 =      0 
   PDVT0 =      0 
   LDVT1 =      0 
   NDVT1 =      0 
   PDVT1 =      0 
   LPHIN =      0 
   NPHIN =      0 
   PPHIN =      0 
   LETA0 =      0 
   NETA0 =      0 
   PETA0 =      0 
   LETA0R =      0 
   NETA0R =      0 
   PETA0R =      0 
   LDSUB =      0 
   NDSUB =      0 
   PDSUB =      0 
   LK1RSCE =      0 
   NK1RSCE =      0 
   PK1RSCE =      0 
   LLPE0 =      0 
   NLPE0 =      0 
   PLPE0 =      0 
   LQMFACTOR =      0 
   NQMFACTOR =      0 
   PQMFACTOR =      0 
   LQMTCENIV =      0 
   NQMTCENIV =      0 
   PQMTCENIV =      0 
   LQMTCENCV =      0 
   NQMTCENCV =      0 
   PQMTCENCV =      0 
   LVSAT =      0 
   NVSAT =      0 
   PVSAT =      0 
   LKSATIV =      0 
   NKSATIV =      0 
   PKSATIV =      0 
   LMEXP =      0 
   NMEXP =      0 
   PMEXP =      0 
   LPTWG =      0 
   NPTWG =      0 
   PPTWG =      0 
   LTHETASAT =      0 
   NTHETASAT =      0 
   PTHETASAT =      0 
   LU0 =      0 
   NU0 =      0 
   PU0 =      0 
   LUP =      0 
   NUP =      0 
   PUP =      0 
   LUA =      0 
   NUA =      0 
   PUA =      0 
   LEU =      0 
   NEU =      0 
   PEU =      0 
   LUD =      0 
   NUD =      0 
   PUD =      0 
   LUCS =      0 
   NUCS =      0 
   PUCS =      0 
   LPCLM =      0 
   NPCLM =      0 
   PPCLM =      0 
   LPCLMCV =      0 
   NPCLMCV =      0 
   PPCLMCV =      0 
   LRDSW =      0 
   NRDSW =      0 
   PRDSW =      0 
   LRSW =      0 
   NRSW =      0 
   PRSW =      0 
   LRDW =      0 
   NRDW =      0 
   PRDW =      0 
   LPRWG =      0 
   NPRWG =      0 
   PPRWG =      0 
   LWR =      0 
   NWR =      0 
   PWR =      0 
   LPDIBL1 =      0 
   NPDIBL1 =      0 
   PPDIBL1 =      0 
   LPDIBL2 =      0 
   NPDIBL2 =      0 
   PPDIBL2 =      0 
   LDROUT =      0 
   NDROUT =      0 
   PDROUT =      0 
   LPVAG =      0 
   NPVAG =      0 
   PPVAG =      0 
   LAIGBINV =      0 
   NAIGBINV =      0 
   PAIGBINV =      0 
   LBIGBINV =      0 
   NBIGBINV =      0 
   PBIGBINV =      0 
   LCIGBINV =      0 
   NCIGBINV =      0 
   PCIGBINV =      0 
   LEIGBINV =      0 
   NEIGBINV =      0 
   PEIGBINV =      0 
   LNIGBINV =      0 
   NNIGBINV =      0 
   PNIGBINV =      0 
   LAIGC =      0 
   NAIGC =      0 
   PAIGC =      0 
   LBIGC =      0 
   NBIGC =      0 
   PBIGC =      0 
   LCIGC =      0 
   NCIGC =      0 
   PCIGC =      0 
   LNIGC =      0 
   NNIGC =      0 
   PNIGC =      0 
   LAIGS =      0 
   NAIGS =      0 
   PAIGS =      0 
   LBIGS =      0 
   NBIGS =      0 
   PBIGS =      0 
   LCIGS =      0 
   NCIGS =      0 
   PCIGS =      0 
   LAIGD =      0 
   NAIGD =      0 
   PAIGD =      0 
   LBIGD =      0 
   NBIGD =      0 
   PBIGD =      0 
   LCIGD =      0 
   NCIGD =      0 
   PCIGD =      0 
   LPOXEDGE =      0 
   NPOXEDGE =      0 
   PPOXEDGE =      0 
   LAGIDL =      0 
   NAGIDL =      0 
   PAGIDL =      0 
   LBGIDL =      0 
   NBGIDL =      0 
   PBGIDL =      0 
   LEGIDL =      0 
   NEGIDL =      0 
   PEGIDL =      0 
   LAGISL =      0 
   NAGISL =      0 
   PAGISL =      0 
   LBGISL =      0 
   NBGISL =      0 
   PBGISL =      0 
   LEGISL =      0 
   NEGISL =      0 
   PEGISL =      0 
   LALPHA0 =      0 
   NALPHA0 =      0 
   PALPHA0 =      0 
   LALPHA1 =      0 
   NALPHA1 =      0 
   PALPHA1 =      0 
   LBETA0 =      0 
   NBETA0 =      0 
   PBETA0 =      0 
   LALPHAII =      0 
   NALPHAII =      0 
   PALPHAII =      0 
   LBETAII0 =      0 
   NBETAII0 =      0 
   PBETAII0 =      0 
   LBETAII1 =      0 
   NBETAII1 =      0 
   PBETAII1 =      0 
   LBETAII2 =      0 
   NBETAII2 =      0 
   PBETAII2 =      0 
   LESATII =      0 
   NESATII =      0 
   PESATII =      0 
   LLII =      0 
   NLII =      0 
   PLII =      0 
   LSII0 =      0 
   NSII0 =      0 
   PSII0 =      0 
   LSII1 =      0 
   NSII1 =      0 
   PSII1 =      0 
   LSII2 =      0 
   NSII2 =      0 
   PSII2 =      0 
   LSIID =      0 
   NSIID =      0 
   PSIID =      0 
   LCFS =      0 
   NCFS =      0 
   PCFS =      0 
   LCFD =      0 
   NCFD =      0 
   PCFD =      0 
   LCOVS =      0 
   NCOVS =      0 
   PCOVS =      0 
   LCOVD =      0 
   NCOVD =      0 
   PCOVD =      0 
   LCGSL =      0 
   NCGSL =      0 
   PCGSL =      0 
   LCGDL =      0 
   NCGDL =      0 
   PCGDL =      0 
   LCKAPPAS =      0 
   NCKAPPAS =      0 
   PCKAPPAS =      0 
   LCKAPPAD =      0 
   NCKAPPAD =      0 
   PCKAPPAD =      0 
   LCGBL =      0 
   NCGBL =      0 
   PCGBL =      0 
   LCKAPPAB =      0 
   NCKAPPAB =      0 
   PCKAPPAB =      0 
   LNTGEN =      0 
   NNTGEN =      0 
   PNTGEN =      0 
   LAIGEN =      0 
   NAIGEN =      0 
   PAIGEN =      0 
   LBIGEN =      0 
   NBIGEN =      0 
   PBIGEN =      0 
   LXRCRG1 =      0 
   NXRCRG1 =      0 
   PXRCRG1 =      0 
   LXRCRG2 =      0 
   NXRCRG2 =      0 
   PXRCRG2 =      0 
   LINTNOI =      0 
   NINTNOI =      0 
   PINTNOI =      0 
   LUTE =      0 
   NUTE =      0 
   PUTE =      0 
   LUTL =      0 
   NUTL =      0 
   PUTL =      0 
   LUA1 =      0 
   NUA1 =      0 
   PUA1 =      0 
   LUD1 =      0 
   NUD1 =      0 
   PUD1 =      0 
   LUCSTE =      0 
   NUCSTE =      0 
   PUCSTE =      0 
   LPTWGT =      0 
   NPTWGT =      0 
   PPTWGT =      0 
   LAT =      0 
   NAT =      0 
   PAT =      0 
   LSTTHETASAT =      0 
   NSTTHETASAT =      0 
   PSTTHETASAT =      0 
   LPRT =      0 
   NPRT =      0 
   PPRT =      0 
   LIIT =      0 
   NIIT =      0 
   PIIT =      0 
   LTII =      0 
   NTII =      0 
   PTII =      0 
   LTGIDL =      0 
   NTGIDL =      0 
   PTGIDL =      0 
   LIGT =      0 
   NIGT =      0 
   PIGT =      0 
   L = 1.1e-08 m
   D =  4e-08 m
   TFIN = 6.5e-09 m
   FPITCH = 2.2e-08 m
   NF = 1 
   NFIN = 1 
   NGCON = 1 
   ASEO =      0 m^2
   ADEO =      0 m^2
   PSEO =      0 m
   PDEO =      0 m
   ASEJ =      0 m^2
   ADEJ =      0 m^2
   PSEJ =      0 m
   PDEJ =      0 m
   CGSP =      0 F
   CGDP =      0 F
   CDSP =      0 F
   NRS =      0 
   NRD =      0 
   LRSD = 1.1e-08 m
   XL =      0 m
   DELVTRAND =      0 
   U0MULT =      1 
   IDS0MULT =      1 
   Lmin =  1e-08 m
   Lmax =  3e-08 m
   NFINmin = 0 
   NFINmax = 1 
   LVSAT1 =      0 
   NVSAT1 =      0 
   PVSAT1 =      0 
   LETAMOB =      0 
   NETAMOB =      0 
   PETAMOB =      0 
   LPCLMG =      0 
   NPCLMG =      0 
   PPCLMG =      0 
   LVASAT =      0 
   NVASAT =      0 
   PVASAT =      0 
   LAIGBACC =      0 
   NAIGBACC =      0 
   PAIGBACC =      0 
   LBIGBACC =      0 
   NBIGBACC =      0 
   PBIGBACC =      0 
   LCIGBACC =      0 
   NCIGBACC =      0 
   PCIGBACC =      0 
   LNIGBACC =      0 
   NNIGBACC =      0 
   PNIGBACC =      0 
  **info** (ptm7hp.sp:15) DC voltage reset to initial transient source value              in source        0:vin_0               new dc=  0.7000D+00
  
      
 **info** set option symb=1 internally to help for convergence.
 *****************************************************************
 ******  option summary
 ******
 runlvl  = 3         bypass  = 2         
  Opening plot unit= 15
 file=ptm7hp.pa0                                                               

1****** HSPICE -- F-2011.09-SP2 64-BIT (Feb 27 2012) linux ******               
 ******  
 $ netlist of inverter

  ******  operating point information tnom=  25.000 temp=  25.000 *****
 ***** operating point status is voltage   simulation time is     0.     
     node    =voltage       node    =voltage       node    =voltage

 + 0:inb_0   = 700.0000m  0:inb_1   = 700.0000m  0:outb_00 = 691.0843m
 + 0:outb_10 = 691.0843m  0:outin_00=   9.3910m  0:outin_01=   9.3910m
 + 0:outin_10= 691.2671m  0:outin_11= 691.2671m  0:outin_20=  10.6657m
 + 0:outin_21=  10.6657m  0:vdd     = 700.0000m

 ******  
 $ netlist of inverter

  ******  transient analysis tnom=  25.000 temp=  25.000 *****
 inv_avg_power00=   1.6411u  from=   0.          to=   4.0000n
 peakpower00=  15.2532u    at=   1.0738n
             from=   0.         to=   4.0000n
 inv_avg_power10=   1.5764u  from=   0.          to=   4.0000n
 peakpower10=  19.6730u    at=   1.0795n
             from=   0.         to=   4.0000n
 inv_avg_power01=   1.5493u  from=   0.          to=   4.0000n
 peakpower01=  15.3199u    at=   2.0762n
             from=   0.         to=   4.0000n
 inv_avg_power11=   1.5313u  from=   0.          to=   4.0000n
 peakpower11=  18.3636u    at=  29.9042p
             from=   0.         to=   4.0000n
 model_uut_grid_avg_power=   6.2980u  from=   0.          to=   4.0000n
 model_uut_grid_max_power=  66.1118u    at=  29.9042p
             from=   0.         to=   4.0000n
 source_power=  12.4364u  from=   0.          to=   4.0000n
 trf_delay_001=   1.8587p  targ=  30.0891p   trig=  28.2304p
 tfr_delay_001=   2.2559p  targ=   1.0795n   trig=   1.0773n
 trf_delay_002=   1.8515p  targ=   2.0303n   trig=   2.0284n
 tfr_delay_002=   2.4165p  targ=   3.0793n   trig=   3.0769n
 trf_delay_101=   1.1392p  targ=   1.0807n   trig=   1.0795n
 tfr_delay_101=   1.6147p  targ=  31.7037p   trig=  30.0891p
 trf_delay_102=   1.5866p  targ=   3.0809n   trig=   3.0793n
 tfr_delay_102=   1.3613p  targ=   2.0316n   trig=   2.0303n
 trf_delay_011=   1.8587p  targ=  30.0891p   trig=  28.2304p
 tfr_delay_011=   1.8672p  targ=   2.0790n   trig=   2.0772n
 trf_delay_111=   1.7807p  targ=   2.0808n   trig=   2.0790n
 tfr_delay_111=   1.6147p  targ=  31.7037p   trig=  30.0891p
x

        time    voltage      voltage    
                 outin_00     outin_10  
    0.            9.3910m    691.2671m  
   10.00000p     38.3890m    687.4528m  
   20.00000p    104.7311m    672.0368m  
   30.00000p    416.6306m    358.0963m  
   40.00000p    649.9106m     20.7588m  
   50.00000p    688.3038m     11.9740m  
   60.00000p    692.5080m     10.4910m  
   70.00000p    692.5410m     10.4549m  
   80.00000p    692.5216m     10.4766m  
   90.00000p    692.5057m     10.4943m  
  100.00000p    692.5126m     10.4866m  
  110.00000p    692.5194m     10.4788m  
  120.00000p    692.5262m     10.4711m  
  130.00000p    692.5331m     10.4634m  
  140.00000p    692.5390m     10.4567m  
  150.00000p    692.5359m     10.4602m  
  160.00000p    692.5328m     10.4638m  
  170.00000p    692.5297m     10.4673m  
  180.00000p    692.5266m     10.4708m  
  190.00000p    692.5235m     10.4743m  
  200.00000p    692.5204m     10.4779m  
  210.00000p    692.5173m     10.4814m  
  220.00000p    692.5142m     10.4849m  
  230.00000p    692.5111m     10.4884m  
  240.00000p    692.5080m     10.4920m  
  250.00000p    692.5073m     10.4927m  
  260.00000p    692.5089m     10.4909m  
  270.00000p    692.5105m     10.4890m  
  280.00000p    692.5121m     10.4872m  
  290.00000p    692.5137m     10.4854m  
  300.00000p    692.5153m     10.4836m  
  310.00000p    692.5169m     10.4817m  
  320.00000p    692.5185m     10.4799m  
  330.00000p    692.5201m     10.4781m  
  340.00000p    692.5217m     10.4763m  
  350.00000p    692.5233m     10.4745m  
  360.00000p    692.5249m     10.4726m  
  370.00000p    692.5265m     10.4708m  
  380.00000p    692.5281m     10.4690m  
  390.00000p    692.5297m     10.4672m  
  400.00000p    692.5313m     10.4653m  
  410.00000p    692.5329m     10.4635m  
  420.00000p    692.5345m     10.4617m  
  430.00000p    692.5361m     10.4599m  
  440.00000p    692.5377m     10.4581m  
  450.00000p    692.5376m     10.4581m  
  460.00000p    692.5361m     10.4599m  
  470.00000p    692.5345m     10.4617m  
  480.00000p    692.5329m     10.4635m  
  490.00000p    692.5314m     10.4653m  
  500.00000p    692.5298m     10.4671m  
  510.00000p    692.5282m     10.4689m  
  520.00000p    692.5266m     10.4707m  
  530.00000p    692.5251m     10.4725m  
  540.00000p    692.5235m     10.4743m  
  550.00000p    692.5219m     10.4761m  
  560.00000p    692.5204m     10.4779m  
  570.00000p    692.5188m     10.4797m  
  580.00000p    692.5172m     10.4815m  
  590.00000p    692.5156m     10.4833m  
  600.00000p    692.5141m     10.4851m  
  610.00000p    692.5125m     10.4868m  
  620.00000p    692.5109m     10.4886m  
  630.00000p    692.5094m     10.4904m  
  640.00000p    692.5078m     10.4922m  
  650.00000p    692.5078m     10.4922m  
  660.00000p    692.5094m     10.4904m  
  670.00000p    692.5109m     10.4886m  
  680.00000p    692.5125m     10.4869m  
  690.00000p    692.5140m     10.4851m  
  700.00000p    692.5156m     10.4833m  
  710.00000p    692.5171m     10.4816m  
  720.00000p    692.5187m     10.4798m  
  730.00000p    692.5202m     10.4780m  
  740.00000p    692.5218m     10.4763m  
  750.00000p    692.5233m     10.4745m  
  760.00000p    692.5248m     10.4727m  
  770.00000p    692.5264m     10.4709m  
  780.00000p    692.5279m     10.4692m  
  790.00000p    692.5295m     10.4674m  
  800.00000p    692.5310m     10.4656m  
  810.00000p    692.5326m     10.4639m  
  820.00000p    692.5341m     10.4621m  
  830.00000p    692.5357m     10.4603m  
  840.00000p    692.5372m     10.4586m  
  850.00000p    692.5372m     10.4586m  
  860.00000p    692.5357m     10.4603m  
  870.00000p    692.5342m     10.4620m  
  880.00000p    692.5327m     10.4637m  
  890.00000p    692.5312m     10.4654m  
  900.00000p    692.5298m     10.4671m  
  910.00000p    692.5283m     10.4688m  
  920.00000p    692.5268m     10.4705m  
  930.00000p    692.5253m     10.4722m  
  940.00000p    692.5238m     10.4739m  
  950.00000p    692.5224m     10.4756m  
  960.00000p    692.5209m     10.4773m  
  970.00000p    692.5194m     10.4790m  
  980.00000p    692.5179m     10.4807m  
  990.00000p    692.5164m     10.4824m  
    1.00000n    692.5150m     10.4841m  
    1.01000n    692.5135m     10.4858m  
    1.02000n    692.5120m     10.4875m  
    1.03000n    692.5105m     10.4892m  
    1.04000n    692.5090m     10.4909m  
    1.05000n    692.5076m     10.4926m  
    1.06000n    661.0252m     14.7765m  
    1.07000n    583.4085m     30.9822m  
    1.08000n    238.8624m    390.5525m  
    1.09000n     47.1957m    683.1215m  
    1.10000n     13.0711m    690.1343m  
    1.11000n      9.3868m    691.2963m  
    1.12000n      9.3926m    691.2466m  
    1.13000n      9.3914m    691.2959m  
    1.14000n      9.3909m    691.2748m  
    1.15000n      9.3903m    691.2537m  
    1.16000n      9.3899m    691.2367m  
    1.17000n      9.3902m    691.2446m  
    1.18000n      9.3906m    691.2524m  
    1.19000n      9.3909m    691.2602m  
    1.20000n      9.3912m    691.2680m  
    1.21000n      9.3915m    691.2758m  
    1.22000n      9.3919m    691.2837m  
    1.23000n      9.3922m    691.2915m  
    1.24000n      9.3924m    691.2967m  
    1.25000n      9.3922m    691.2928m  
    1.26000n      9.3920m    691.2889m  
    1.27000n      9.3918m    691.2850m  
    1.28000n      9.3917m    691.2811m  
    1.29000n      9.3915m    691.2772m  
    1.30000n      9.3913m    691.2733m  
    1.31000n      9.3911m    691.2694m  
    1.32000n      9.3909m    691.2655m  
    1.33000n      9.3907m    691.2616m  
    1.34000n      9.3905m    691.2577m  
    1.35000n      9.3903m    691.2538m  
    1.36000n      9.3901m    691.2499m  
    1.37000n      9.3900m    691.2460m  
    1.38000n      9.3898m    691.2421m  
    1.39000n      9.3896m    691.2382m  
    1.40000n      9.3896m    691.2392m  
    1.41000n      9.3898m    691.2422m  
    1.42000n      9.3899m    691.2452m  
    1.43000n      9.3901m    691.2482m  
    1.44000n      9.3903m    691.2512m  
    1.45000n      9.3904m    691.2542m  
    1.46000n      9.3906m    691.2571m  
    1.47000n      9.3907m    691.2601m  
    1.48000n      9.3909m    691.2631m  
    1.49000n      9.3910m    691.2661m  
    1.50000n      9.3912m    691.2691m  
    1.51000n      9.3914m    691.2720m  
    1.52000n      9.3915m    691.2750m  
    1.53000n      9.3917m    691.2780m  
    1.54000n      9.3918m    691.2810m  
    1.55000n      9.3920m    691.2840m  
    1.56000n      9.3921m    691.2870m  
    1.57000n      9.3923m    691.2899m  
    1.58000n      9.3925m    691.2929m  
    1.59000n      9.3926m    691.2959m  
    1.60000n      9.3925m    691.2946m  
    1.61000n      9.3924m    691.2916m  
    1.62000n      9.3922m    691.2887m  
    1.63000n      9.3920m    691.2858m  
    1.64000n      9.3919m    691.2828m  
    1.65000n      9.3917m    691.2799m  
    1.66000n      9.3915m    691.2769m  
    1.67000n      9.3914m    691.2740m  
    1.68000n      9.3912m    691.2710m  
    1.69000n      9.3911m    691.2681m  
    1.70000n      9.3909m    691.2651m  
    1.71000n      9.3907m    691.2622m  
    1.72000n      9.3906m    691.2592m  
    1.73000n      9.3904m    691.2563m  
    1.74000n      9.3902m    691.2534m  
    1.75000n      9.3901m    691.2504m  
    1.76000n      9.3899m    691.2475m  
    1.77000n      9.3897m    691.2445m  
    1.78000n      9.3896m    691.2416m  
    1.79000n      9.3894m    691.2386m  
    1.80000n      9.3895m    691.2398m  
    1.81000n      9.3896m    691.2427m  
    1.82000n      9.3898m    691.2455m  
    1.83000n      9.3900m    691.2483m  
    1.84000n      9.3901m    691.2511m  
    1.85000n      9.3903m    691.2539m  
    1.86000n      9.3905m    691.2567m  
    1.87000n      9.3906m    691.2595m  
    1.88000n      9.3908m    691.2623m  
    1.89000n      9.3910m    691.2651m  
    1.90000n      9.3911m    691.2679m  
    1.91000n      9.3913m    691.2707m  
    1.92000n      9.3915m    691.2735m  
    1.93000n      9.3916m    691.2764m  
    1.94000n      9.3918m    691.2792m  
    1.95000n      9.3920m    691.2820m  
    1.96000n      9.3921m    691.2848m  
    1.97000n      9.3923m    691.2876m  
    1.98000n      9.3925m    691.2904m  
    1.99000n      9.3926m    691.2932m  
    2.00000n      9.3928m    691.2960m  
    2.01000n     38.1370m    687.5802m  
    2.02000n    106.4566m    672.2754m  
    2.03000n    410.5753m    369.9131m  
    2.04000n    648.0954m     18.3569m  
    2.05000n    687.9687m     11.2857m  
    2.06000n    692.5366m     10.4523m  
    2.07000n    692.5154m     10.4860m  
    2.08000n    692.5183m     10.4976m  
    2.09000n    692.5209m     10.4713m  
    2.10000n    692.5228m     10.4759m  
    2.11000n    692.5226m     10.4753m  
    2.12000n    692.5226m     10.4753m  
    2.13000n    692.5226m     10.4753m  
    2.14000n    692.5226m     10.4753m  
    2.15000n    692.5226m     10.4753m  
    2.16000n    692.5226m     10.4753m  
    2.17000n    692.5226m     10.4753m  
    2.18000n    692.5226m     10.4753m  
    2.19000n    692.5226m     10.4753m  
    2.20000n    692.5226m     10.4753m  
    2.21000n    692.5226m     10.4753m  
    2.22000n    692.5226m     10.4753m  
    2.23000n    692.5226m     10.4753m  
    2.24000n    692.5226m     10.4753m  
    2.25000n    692.5226m     10.4753m  
    2.26000n    692.5226m     10.4753m  
    2.27000n    692.5226m     10.4753m  
    2.28000n    692.5226m     10.4753m  
    2.29000n    692.5226m     10.4753m  
    2.30000n    692.5226m     10.4753m  
    2.31000n    692.5226m     10.4753m  
    2.32000n    692.5226m     10.4753m  
    2.33000n    692.5226m     10.4753m  
    2.34000n    692.5226m     10.4753m  
    2.35000n    692.5226m     10.4753m  
    2.36000n    692.5226m     10.4753m  
    2.37000n    692.5226m     10.4753m  
    2.38000n    692.5226m     10.4753m  
    2.39000n    692.5226m     10.4753m  
    2.40000n    692.5226m     10.4753m  
    2.41000n    692.5226m     10.4753m  
    2.42000n    692.5226m     10.4753m  
    2.43000n    692.5226m     10.4753m  
    2.44000n    692.5226m     10.4753m  
    2.45000n    692.5226m     10.4753m  
    2.46000n    692.5226m     10.4753m  
    2.47000n    692.5226m     10.4753m  
    2.48000n    692.5226m     10.4753m  
    2.49000n    692.5226m     10.4753m  
    2.50000n    692.5226m     10.4753m  
    2.51000n    692.5226m     10.4753m  
    2.52000n    692.5226m     10.4753m  
    2.53000n    692.5226m     10.4753m  
    2.54000n    692.5226m     10.4753m  
    2.55000n    692.5226m     10.4753m  
    2.56000n    692.5226m     10.4753m  
    2.57000n    692.5226m     10.4753m  
    2.58000n    692.5226m     10.4753m  
    2.59000n    692.5226m     10.4753m  
    2.60000n    692.5226m     10.4753m  
    2.61000n    692.5226m     10.4753m  
    2.62000n    692.5226m     10.4753m  
    2.63000n    692.5226m     10.4753m  
    2.64000n    692.5226m     10.4753m  
    2.65000n    692.5226m     10.4753m  
    2.66000n    692.5226m     10.4753m  
    2.67000n    692.5226m     10.4753m  
    2.68000n    692.5226m     10.4753m  
    2.69000n    692.5226m     10.4753m  
    2.70000n    692.5226m     10.4753m  
    2.71000n    692.5226m     10.4753m  
    2.72000n    692.5226m     10.4753m  
    2.73000n    692.5226m     10.4753m  
    2.74000n    692.5226m     10.4753m  
    2.75000n    692.5226m     10.4753m  
    2.76000n    692.5226m     10.4753m  
    2.77000n    692.5226m     10.4753m  
    2.78000n    692.5226m     10.4753m  
    2.79000n    692.5226m     10.4753m  
    2.80000n    692.5226m     10.4753m  
    2.81000n    692.5226m     10.4753m  
    2.82000n    692.5226m     10.4753m  
    2.83000n    692.5226m     10.4753m  
    2.84000n    692.5226m     10.4753m  
    2.85000n    692.5226m     10.4753m  
    2.86000n    692.5226m     10.4753m  
    2.87000n    692.5226m     10.4753m  
    2.88000n    692.5226m     10.4753m  
    2.89000n    692.5226m     10.4753m  
    2.90000n    692.5226m     10.4753m  
    2.91000n    692.5226m     10.4753m  
    2.92000n    692.5226m     10.4753m  
    2.93000n    692.5226m     10.4753m  
    2.94000n    692.5226m     10.4753m  
    2.95000n    692.5226m     10.4753m  
    2.96000n    692.5226m     10.4753m  
    2.97000n    692.5226m     10.4753m  
    2.98000n    692.5226m     10.4753m  
    2.99000n    692.5226m     10.4753m  
    3.00000n    692.5226m     10.4753m  
    3.01000n    692.5226m     10.4753m  
    3.02000n    692.5226m     10.4753m  
    3.03000n    692.5226m     10.4753m  
    3.04000n    692.5226m     10.4753m  
    3.05000n    692.5226m     10.4753m  
    3.06000n    661.0640m     14.6593m  
    3.07000n    561.7835m     37.8113m  
    3.08000n    235.1624m    412.3594m  
    3.09000n     46.9399m    683.3577m  
    3.10000n     13.0750m    690.3400m  
    3.11000n      9.3875m    691.2870m  
    3.12000n      9.3931m    691.2686m  
    3.13000n      9.3935m    691.2933m  
    3.14000n      9.3895m    691.2590m  
    3.15000n      9.3854m    691.2247m  
    3.16000n      9.3873m    691.2379m  
    3.17000n      9.3891m    691.2516m  
    3.18000n      9.3910m    691.2653m  
    3.19000n      9.3929m    691.2789m  
    3.20000n      9.3948m    691.2926m  
    3.21000n      9.3967m    691.3063m  
    3.22000n      9.3962m    691.3028m  
    3.23000n      9.3952m    691.2963m  
    3.24000n      9.3942m    691.2897m  
    3.25000n      9.3933m    691.2832m  
    3.26000n      9.3923m    691.2767m  
    3.27000n      9.3914m    691.2701m  
    3.28000n      9.3904m    691.2636m  
    3.29000n      9.3895m    691.2571m  
    3.30000n      9.3885m    691.2505m  
    3.31000n      9.3876m    691.2440m  
    3.32000n      9.3866m    691.2375m  
    3.33000n      9.3856m    691.2309m  
    3.34000n      9.3852m    691.2278m  
    3.35000n      9.3858m    691.2318m  
    3.36000n      9.3864m    691.2359m  
    3.37000n      9.3870m    691.2399m  
    3.38000n      9.3876m    691.2440m  
    3.39000n      9.3882m    691.2480m  
    3.40000n      9.3888m    691.2520m  
    3.41000n      9.3895m    691.2561m  
    3.42000n      9.3901m    691.2601m  
    3.43000n      9.3907m    691.2641m  
    3.44000n      9.3913m    691.2682m  
    3.45000n      9.3919m    691.2722m  
    3.46000n      9.3925m    691.2762m  
    3.47000n      9.3931m    691.2803m  
    3.48000n      9.3937m    691.2843m  
    3.49000n      9.3943m    691.2884m  
    3.50000n      9.3949m    691.2924m  
    3.51000n      9.3955m    691.2964m  
    3.52000n      9.3962m    691.3005m  
    3.53000n      9.3968m    691.3045m  
    3.54000n      9.3970m    691.3060m  
    3.55000n      9.3964m    691.3020m  
    3.56000n      9.3957m    691.2980m  
    3.57000n      9.3951m    691.2940m  
    3.58000n      9.3945m    691.2900m  
    3.59000n      9.3939m    691.2860m  
    3.60000n      9.3933m    691.2820m  
    3.61000n      9.3927m    691.2780m  
    3.62000n      9.3920m    691.2740m  
    3.63000n      9.3914m    691.2700m  
    3.64000n      9.3908m    691.2660m  
    3.65000n      9.3902m    691.2620m  
    3.66000n      9.3896m    691.2580m  
    3.67000n      9.3890m    691.2540m  
    3.68000n      9.3883m    691.2500m  
    3.69000n      9.3877m    691.2460m  
    3.70000n      9.3871m    691.2420m  
    3.71000n      9.3865m    691.2380m  
    3.72000n      9.3859m    691.2341m  
    3.73000n      9.3853m    691.2301m  
    3.74000n      9.3850m    691.2286m  
    3.75000n      9.3857m    691.2326m  
    3.76000n      9.3863m    691.2365m  
    3.77000n      9.3869m    691.2405m  
    3.78000n      9.3875m    691.2444m  
    3.79000n      9.3882m    691.2484m  
    3.80000n      9.3888m    691.2523m  
    3.81000n      9.3894m    691.2563m  
    3.82000n      9.3900m    691.2602m  
    3.83000n      9.3907m    691.2642m  
    3.84000n      9.3913m    691.2682m  
    3.85000n      9.3919m    691.2721m  
    3.86000n      9.3925m    691.2761m  
    3.87000n      9.3932m    691.2800m  
    3.88000n      9.3938m    691.2840m  
    3.89000n      9.3944m    691.2879m  
    3.90000n      9.3950m    691.2919m  
    3.91000n      9.3956m    691.2958m  
    3.92000n      9.3963m    691.2998m  
    3.93000n      9.3969m    691.3037m  
    3.94000n      9.3967m    691.3025m  
    3.95000n      9.3947m    691.2902m  
    3.96000n      9.3926m    691.2780m  
    3.97000n      9.3906m    691.2657m  
    3.98000n      9.3886m    691.2535m  
    3.99000n      9.3866m    691.2413m  
    4.00000n      9.3846m    691.2290m  
y
x

        time    voltage      voltage    
                 outin_10     outin_20  
    0.          691.2671m     10.6657m  
   10.00000p    687.4528m     11.0883m  
   20.00000p    672.0368m     13.1867m  
   30.00000p    358.0963m    178.8903m  
   40.00000p     20.7588m    688.6987m  
   50.00000p     11.9740m    691.6433m  
   60.00000p     10.4910m    691.1132m  
   70.00000p     10.4549m    691.1120m  
   80.00000p     10.4766m    691.1114m  
   90.00000p     10.4943m    691.1109m  
  100.00000p     10.4866m    691.1113m  
  110.00000p     10.4788m    691.1117m  
  120.00000p     10.4711m    691.1121m  
  130.00000p     10.4634m    691.1125m  
  140.00000p     10.4567m    691.1129m  
  150.00000p     10.4602m    691.1126m  
  160.00000p     10.4638m    691.1124m  
  170.00000p     10.4673m    691.1122m  
  180.00000p     10.4708m    691.1119m  
  190.00000p     10.4743m    691.1117m  
  200.00000p     10.4779m    691.1115m  
  210.00000p     10.4814m    691.1113m  
  220.00000p     10.4849m    691.1110m  
  230.00000p     10.4884m    691.1108m  
  240.00000p     10.4920m    691.1106m  
  250.00000p     10.4927m    691.1106m  
[...]
    3.64000n      9.3910m    691.2671m  
    3.65000n      9.3910m    691.2671m  
    3.66000n      9.3910m    691.2671m  
    3.67000n      9.3910m    691.2671m  
    3.68000n      9.3910m    691.2671m  
    3.69000n      9.3910m    691.2671m  
    3.70000n      9.3910m    691.2671m  
    3.71000n      9.3910m    691.2671m  
    3.72000n      9.3910m    691.2671m  
    3.73000n      9.3910m    691.2671m  
    3.74000n      9.3910m    691.2671m  
    3.75000n      9.3910m    691.2671m  
    3.76000n      9.3910m    691.2671m  
    3.77000n      9.3910m    691.2671m  
    3.78000n      9.3910m    691.2671m  
    3.79000n      9.3910m    691.2671m  
    3.80000n      9.3910m    691.2671m  
    3.81000n      9.3910m    691.2671m  
    3.82000n      9.3910m    691.2671m  
    3.83000n      9.3910m    691.2671m  
    3.84000n      9.3910m    691.2671m  
    3.85000n      9.3910m    691.2671m  
    3.86000n      9.3910m    691.2671m  
    3.87000n      9.3910m    691.2671m  
    3.88000n      9.3910m    691.2671m  
    3.89000n      9.3910m    691.2671m  
    3.90000n      9.3910m    691.2671m  
    3.91000n      9.3910m    691.2671m  
    3.92000n      9.3910m    691.2671m  
    3.93000n      9.3910m    691.2671m  
    3.94000n      9.3910m    691.2671m  
    3.95000n      9.3910m    691.2671m  
    3.96000n      9.3910m    691.2671m  
    3.97000n      9.3910m    691.2671m  
    3.98000n      9.3910m    691.2671m  
    3.99000n      9.3910m    691.2671m  
    4.00000n      9.3910m    691.2671m  
y
x

        time    voltage      voltage    
                 outin_11     outin_21  
    0.          691.2671m     10.6657m  
   10.00000p    687.4528m     11.0883m  
   20.00000p    672.0368m     13.1867m  
   30.00000p    358.0963m    178.8903m  
   40.00000p     20.7588m    688.6987m  
   50.00000p     11.9740m    691.6433m  
   60.00000p     10.4910m    691.1132m  
   70.00000p     10.4549m    691.1120m  
   80.00000p     10.4766m    691.1114m  
   90.00000p     10.4943m    691.1109m  
  100.00000p     10.4866m    691.1113m  
  110.00000p     10.4788m    691.1117m  
  120.00000p     10.4711m    691.1121m  
  130.00000p     10.4634m    691.1125m  
  140.00000p     10.4567m    691.1129m  
  150.00000p     10.4602m    691.1126m  
  160.00000p     10.4638m    691.1124m  
  170.00000p     10.4673m    691.1122m  
  180.00000p     10.4708m    691.1119m  
  190.00000p     10.4743m    691.1117m  
  200.00000p     10.4779m    691.1115m  
  210.00000p     10.4814m    691.1113m  
  220.00000p     10.4849m    691.1110m  
  230.00000p     10.4884m    691.1108m  
  240.00000p     10.4920m    691.1106m  
  250.00000p     10.4927m    691.1106m  
  260.00000p     10.4909m    691.1107m  
  270.00000p     10.4890m    691.1108m  
  280.00000p     10.4872m    691.1109m  
  290.00000p     10.4854m    691.1111m  
  300.00000p     10.4836m    691.1112m  
  310.00000p     10.4817m    691.1113m  
  320.00000p     10.4799m    691.1115m  
  330.00000p     10.4781m    691.1116m  
  340.00000p     10.4763m    691.1117m  
  350.00000p     10.4745m    691.1118m  
  360.00000p     10.4726m    691.1120m  
  370.00000p     10.4708m    691.1121m  
  380.00000p     10.4690m    691.1122m  
  390.00000p     10.4672m    691.1124m  
  400.00000p     10.4653m    691.1125m  
  410.00000p     10.4635m    691.1126m  
  420.00000p     10.4617m    691.1127m  
  430.00000p     10.4599m    691.1129m  
  440.00000p     10.4581m    691.1130m  
  450.00000p     10.4581m    691.1130m  
  460.00000p     10.4599m    691.1129m  
  470.00000p     10.4617m    691.1127m  
  480.00000p     10.4635m    691.1126m  
  490.00000p     10.4653m    691.1124m  
  500.00000p     10.4671m    691.1123m  
  510.00000p     10.4689m    691.1122m  
  520.00000p     10.4707m    691.1120m  
  530.00000p     10.4725m    691.1119m  
  540.00000p     10.4743m    691.1118m  
  550.00000p     10.4761m    691.1116m  
  560.00000p     10.4779m    691.1115m  
  570.00000p     10.4797m    691.1114m  
  580.00000p     10.4815m    691.1112m  
  590.00000p     10.4833m    691.1111m  
  600.00000p     10.4851m    691.1110m  
  610.00000p     10.4868m    691.1108m  
  620.00000p     10.4886m    691.1107m  
  630.00000p     10.4904m    691.1106m  
  640.00000p     10.4922m    691.1104m  
  650.00000p     10.4922m    691.1104m  
  660.00000p     10.4904m    691.1106m  
  670.00000p     10.4886m    691.1107m  
  680.00000p     10.4869m    691.1109m  
  690.00000p     10.4851m    691.1110m  
  700.00000p     10.4833m    691.1111m  
  710.00000p     10.4816m    691.1113m  
  720.00000p     10.4798m    691.1114m  
  730.00000p     10.4780m    691.1116m  
  740.00000p     10.4763m    691.1117m  
  750.00000p     10.4745m    691.1118m  
  760.00000p     10.4727m    691.1120m  
  770.00000p     10.4709m    691.1121m  
  780.00000p     10.4692m    691.1123m  
  790.00000p     10.4674m    691.1124m  
  800.00000p     10.4656m    691.1126m  
  810.00000p     10.4639m    691.1127m  
  820.00000p     10.4621m    691.1128m  
  830.00000p     10.4603m    691.1130m  
  840.00000p     10.4586m    691.1131m  
  850.00000p     10.4586m    691.1131m  
  860.00000p     10.4603m    691.1130m  
  870.00000p     10.4620m    691.1128m  
  880.00000p     10.4637m    691.1127m  
  890.00000p     10.4654m    691.1125m  
  900.00000p     10.4671m    691.1124m  
  910.00000p     10.4688m    691.1122m  
  920.00000p     10.4705m    691.1121m  
  930.00000p     10.4722m    691.1120m  
  940.00000p     10.4739m    691.1118m  
  950.00000p     10.4756m    691.1117m  
  960.00000p     10.4773m    691.1115m  
  970.00000p     10.4790m    691.1114m  
  980.00000p     10.4807m    691.1112m  
  990.00000p     10.4824m    691.1111m  
    1.00000n     10.4841m    691.1110m  
    1.01000n     10.4858m    691.1108m  
    1.02000n     10.4875m    691.1107m  
    1.03000n     10.4892m    691.1105m  
    1.04000n     10.4909m    691.1104m  
    1.05000n     10.4926m    691.1102m  
    1.06000n     10.4752m    691.1116m  
    1.07000n     10.4753m    691.1118m  
    1.08000n     10.4753m    691.1117m  
    1.09000n     10.4753m    691.1117m  
    1.10000n     10.4753m    691.1117m  
    1.11000n     10.4753m    691.1117m  
    1.12000n     10.4753m    691.1117m  
    1.13000n     10.4753m    691.1117m  
    1.14000n     10.4753m    691.1117m  
    1.15000n     10.4753m    691.1117m  
    1.16000n     10.4753m    691.1117m  
    1.17000n     10.4753m    691.1117m  
    1.18000n     10.4753m    691.1117m  
    1.19000n     10.4753m    691.1117m  
    1.20000n     10.4753m    691.1117m  
    1.21000n     10.4753m    691.1117m  
    1.22000n     10.4753m    691.1117m  
    1.23000n     10.4753m    691.1117m  
    1.24000n     10.4753m    691.1117m  
    1.25000n     10.4753m    691.1117m  
    1.26000n     10.4753m    691.1117m  
    1.27000n     10.4753m    691.1117m  
    1.28000n     10.4753m    691.1117m  
    1.29000n     10.4753m    691.1117m  
    1.30000n     10.4753m    691.1117m  
    1.31000n     10.4753m    691.1117m  
    1.32000n     10.4753m    691.1117m  
    1.33000n     10.4753m    691.1117m  
    1.34000n     10.4753m    691.1117m  
    1.35000n     10.4753m    691.1117m  
    1.36000n     10.4753m    691.1117m  
    1.37000n     10.4753m    691.1117m  
    1.38000n     10.4753m    691.1117m  
    1.39000n     10.4753m    691.1117m  
    1.40000n     10.4753m    691.1117m  
    1.41000n     10.4753m    691.1117m  
    1.42000n     10.4753m    691.1117m  
    1.43000n     10.4753m    691.1117m  
    1.44000n     10.4753m    691.1117m  
    1.45000n     10.4753m    691.1117m  
    1.46000n     10.4753m    691.1117m  
    1.47000n     10.4753m    691.1117m  
    1.48000n     10.4753m    691.1117m  
    1.49000n     10.4753m    691.1117m  
    1.50000n     10.4753m    691.1117m  
    1.51000n     10.4753m    691.1117m  
    1.52000n     10.4753m    691.1117m  
    1.53000n     10.4753m    691.1117m  
    1.54000n     10.4753m    691.1117m  
    1.55000n     10.4753m    691.1117m  
    1.56000n     10.4753m    691.1117m  
    1.57000n     10.4753m    691.1117m  
    1.58000n     10.4753m    691.1117m  
    1.59000n     10.4753m    691.1117m  
    1.60000n     10.4753m    691.1117m  
    1.61000n     10.4753m    691.1117m  
    1.62000n     10.4753m    691.1117m  
    1.63000n     10.4753m    691.1117m  
    1.64000n     10.4753m    691.1117m  
    1.65000n     10.4753m    691.1117m  
    1.66000n     10.4753m    691.1117m  
    1.67000n     10.4753m    691.1117m  
    1.68000n     10.4753m    691.1117m  
    1.69000n     10.4753m    691.1117m  
    1.70000n     10.4753m    691.1117m  
    1.71000n     10.4753m    691.1117m  
    1.72000n     10.4753m    691.1117m  
    1.73000n     10.4753m    691.1117m  
    1.74000n     10.4753m    691.1117m  
    1.75000n     10.4753m    691.1117m  
    1.76000n     10.4753m    691.1117m  
    1.77000n     10.4753m    691.1117m  
    1.78000n     10.4753m    691.1117m  
    1.79000n     10.4753m    691.1117m  
    1.80000n     10.4753m    691.1117m  
    1.81000n     10.4753m    691.1117m  
    1.82000n     10.4753m    691.1117m  
    1.83000n     10.4753m    691.1117m  
    1.84000n     10.4753m    691.1117m  
    1.85000n     10.4753m    691.1117m  
    1.86000n     10.4753m    691.1117m  
    1.87000n     10.4753m    691.1117m  
    1.88000n     10.4753m    691.1117m  
    1.89000n     10.4753m    691.1117m  
    1.90000n     10.4753m    691.1117m  
    1.91000n     10.4753m    691.1117m  
    1.92000n     10.4753m    691.1117m  
    1.93000n     10.4753m    691.1117m  
    1.94000n     10.4753m    691.1117m  
    1.95000n     10.4753m    691.1117m  
    1.96000n     10.4753m    691.1117m  
    1.97000n     10.4753m    691.1117m  
    1.98000n     10.4753m    691.1117m  
    1.99000n     10.4753m    691.1117m  
    2.00000n     10.4753m    691.1117m  
    2.01000n     10.4753m    691.1117m  
    2.02000n     10.4753m    691.1117m  
    2.03000n     10.4753m    691.1117m  
    2.04000n     10.4753m    691.1117m  
    2.05000n     10.4753m    691.1117m  
    2.06000n     15.0235m    690.6921m  
    2.07000n     40.6678m    687.0548m  
    2.08000n    405.2593m    405.0464m  
    2.09000n    685.9411m     16.1438m  
    2.10000n    690.3164m     11.6886m  
    2.11000n    691.2720m     10.6591m  
    2.12000n    691.2657m     10.6597m  
    2.13000n    691.2663m     10.6414m  
    2.14000n    691.2671m     10.6645m  
    2.15000n    691.2679m     10.6875m  
    2.16000n    691.2681m     10.6958m  
    2.17000n    691.2676m     10.6857m  
    2.18000n    691.2671m     10.6756m  
    2.19000n    691.2666m     10.6655m  
    2.20000n    691.2661m     10.6554m  
    2.21000n    691.2655m     10.6453m  
    2.22000n    691.2650m     10.6352m  
    2.23000n    691.2650m     10.6347m  
    2.24000n    691.2653m     10.6390m  
    2.25000n    691.2655m     10.6432m  
    2.26000n    691.2658m     10.6475m  
    2.27000n    691.2660m     10.6517m  
    2.28000n    691.2662m     10.6560m  
    2.29000n    691.2665m     10.6602m  
    2.30000n    691.2667m     10.6645m  
    2.31000n    691.2670m     10.6687m  
    2.32000n    691.2672m     10.6730m  
    2.33000n    691.2675m     10.6772m  
    2.34000n    691.2677m     10.6815m  
    2.35000n    691.2680m     10.6857m  
    2.36000n    691.2682m     10.6900m  
    2.37000n    691.2685m     10.6942m  
    2.38000n    691.2687m     10.6985m  
    2.39000n    691.2686m     10.6967m  
    2.40000n    691.2684m     10.6933m  
    2.41000n    691.2682m     10.6900m  
    2.42000n    691.2680m     10.6866m  
    2.43000n    691.2678m     10.6833m  
    2.44000n    691.2676m     10.6799m  
    2.45000n    691.2674m     10.6766m  
    2.46000n    691.2671m     10.6732m  
    2.47000n    691.2669m     10.6699m  
    2.48000n    691.2667m     10.6665m  
    2.49000n    691.2665m     10.6632m  
    2.50000n    691.2663m     10.6598m  
    2.51000n    691.2661m     10.6565m  
    2.52000n    691.2659m     10.6531m  
    2.53000n    691.2657m     10.6498m  
    2.54000n    691.2655m     10.6465m  
    2.55000n    691.2653m     10.6431m  
    2.56000n    691.2651m     10.6398m  
    2.57000n    691.2649m     10.6364m  
    2.58000n    691.2647m     10.6331m  
    2.59000n    691.2648m     10.6350m  
    2.60000n    691.2650m     10.6384m  
    2.61000n    691.2652m     10.6417m  
    2.62000n    691.2655m     10.6450m  
    2.63000n    691.2657m     10.6483m  
    2.64000n    691.2659m     10.6517m  
    2.65000n    691.2661m     10.6550m  
    2.66000n    691.2663m     10.6583m  
    2.67000n    691.2665m     10.6616m  
    2.68000n    691.2667m     10.6650m  
    2.69000n    691.2670m     10.6683m  
    2.70000n    691.2672m     10.6716m  
    2.71000n    691.2674m     10.6749m  
    2.72000n    691.2676m     10.6783m  
    2.73000n    691.2678m     10.6816m  
    2.74000n    691.2680m     10.6849m  
    2.75000n    691.2682m     10.6882m  
    2.76000n    691.2685m     10.6916m  
    2.77000n    691.2687m     10.6949m  
    2.78000n    691.2689m     10.6982m  
    2.79000n    691.2688m     10.6962m  
    2.80000n    691.2685m     10.6929m  
    2.81000n    691.2683m     10.6896m  
    2.82000n    691.2681m     10.6863m  
    2.83000n    691.2679m     10.6830m  
    2.84000n    691.2676m     10.6797m  
    2.85000n    691.2674m     10.6764m  
    2.86000n    691.2672m     10.6731m  
    2.87000n    691.2670m     10.6698m  
    2.88000n    691.2667m     10.6665m  
    2.89000n    691.2665m     10.6632m  
    2.90000n    691.2663m     10.6599m  
    2.91000n    691.2661m     10.6566m  
    2.92000n    691.2659m     10.6533m  
    2.93000n    691.2656m     10.6500m  
    2.94000n    691.2654m     10.6467m  
    2.95000n    691.2652m     10.6434m  
    2.96000n    691.2650m     10.6401m  
    2.97000n    691.2647m     10.6368m  
    2.98000n    691.2645m     10.6335m  
    2.99000n    691.2650m     10.6405m  
    3.00000n    691.2657m     10.6501m  
    3.01000n    691.2664m     10.6597m  
    3.02000n    691.2671m     10.6693m  
    3.03000n    691.2679m     10.6789m  
    3.04000n    691.2686m     10.6884m  
    3.05000n    691.2693m     10.6980m  
    3.06000n    691.2672m     10.6650m  
    3.07000n    691.2670m     10.6662m  
    3.08000n    691.2671m     10.6657m  
    3.09000n    691.2671m     10.6657m  
    3.10000n    691.2671m     10.6657m  
    3.11000n    691.2671m     10.6657m  
    3.12000n    691.2671m     10.6657m  
    3.13000n    691.2671m     10.6657m  
    3.14000n    691.2671m     10.6657m  
    3.15000n    691.2671m     10.6657m  
    3.16000n    691.2671m     10.6657m  
    3.17000n    691.2671m     10.6657m  
    3.18000n    691.2671m     10.6657m  
    3.19000n    691.2671m     10.6657m  
    3.20000n    691.2671m     10.6657m  
    3.21000n    691.2671m     10.6657m  
    3.22000n    691.2671m     10.6657m  
    3.23000n    691.2671m     10.6657m  
    3.24000n    691.2671m     10.6657m  
    3.25000n    691.2671m     10.6657m  
    3.26000n    691.2671m     10.6657m  
    3.27000n    691.2671m     10.6657m  
    3.28000n    691.2671m     10.6657m  
    3.29000n    691.2671m     10.6657m  
    3.30000n    691.2671m     10.6657m  
    3.31000n    691.2671m     10.6657m  
    3.32000n    691.2671m     10.6657m  
    3.33000n    691.2671m     10.6657m  
    3.34000n    691.2671m     10.6657m  
    3.35000n    691.2671m     10.6657m  
    3.36000n    691.2671m     10.6657m  
    3.37000n    691.2671m     10.6657m  
    3.38000n    691.2671m     10.6657m  
    3.39000n    691.2671m     10.6657m  
    3.40000n    691.2671m     10.6657m  
    3.41000n    691.2671m     10.6657m  
    3.42000n    691.2671m     10.6657m  
    3.43000n    691.2671m     10.6657m  
    3.44000n    691.2671m     10.6657m  
    3.45000n    691.2671m     10.6657m  
    3.46000n    691.2671m     10.6657m  
    3.47000n    691.2671m     10.6657m  
    3.48000n    691.2671m     10.6657m  
    3.49000n    691.2671m     10.6657m  
    3.50000n    691.2671m     10.6657m  
    3.51000n    691.2671m     10.6657m  
    3.52000n    691.2671m     10.6657m  
    3.53000n    691.2671m     10.6657m  
    3.54000n    691.2671m     10.6657m  
    3.55000n    691.2671m     10.6657m  
    3.56000n    691.2671m     10.6657m  
    3.57000n    691.2671m     10.6657m  
    3.58000n    691.2671m     10.6657m  
    3.59000n    691.2671m     10.6657m  
    3.60000n    691.2671m     10.6657m  
    3.61000n    691.2671m     10.6657m  
    3.62000n    691.2671m     10.6657m  
    3.63000n    691.2671m     10.6657m  
    3.64000n    691.2671m     10.6657m  
    3.65000n    691.2671m     10.6657m  
    3.66000n    691.2671m     10.6657m  
    3.67000n    691.2671m     10.6657m  
    3.68000n    691.2671m     10.6657m  
    3.69000n    691.2671m     10.6657m  
    3.70000n    691.2671m     10.6657m  
    3.71000n    691.2671m     10.6657m  
    3.72000n    691.2671m     10.6657m  
    3.73000n    691.2671m     10.6657m  
    3.74000n    691.2671m     10.6657m  
    3.75000n    691.2671m     10.6657m  
    3.76000n    691.2671m     10.6657m  
    3.77000n    691.2671m     10.6657m  
    3.78000n    691.2671m     10.6657m  
    3.79000n    691.2671m     10.6657m  
    3.80000n    691.2671m     10.6657m  
    3.81000n    691.2671m     10.6657m  
    3.82000n    691.2671m     10.6657m  
    3.83000n    691.2671m     10.6657m  
    3.84000n    691.2671m     10.6657m  
    3.85000n    691.2671m     10.6657m  
    3.86000n    691.2671m     10.6657m  
    3.87000n    691.2671m     10.6657m  
    3.88000n    691.2671m     10.6657m  
    3.89000n    691.2671m     10.6657m  
    3.90000n    691.2671m     10.6657m  
    3.91000n    691.2671m     10.6657m  
    3.92000n    691.2671m     10.6657m  
    3.93000n    691.2671m     10.6657m  
    3.94000n    691.2671m     10.6657m  
    3.95000n    691.2671m     10.6657m  
    3.96000n    691.2671m     10.6657m  
    3.97000n    691.2671m     10.6657m  
    3.98000n    691.2671m     10.6657m  
    3.99000n    691.2671m     10.6657m  
    4.00000n    691.2671m     10.6657m  
y

          ***** job concluded
1****** HSPICE -- F-2011.09-SP2 64-BIT (Feb 27 2012) linux ******               
 ******  
 $ netlist of inverter

  ******  job statistics summary tnom=  25.000 temp=  25.000 *****
  
  
 ******  Machine Information  ******
 CPU:
 model name	: Intel(R) Xeon(R) CPU E5-2650 v4 @ 2.20GHz
 cpu MHz	: 2726.796
  
 OS:
 Linux version 3.10.0-693.17.1.el7.x86_64 (mockbuild@x86-041.build.eng.bos.redha
 t.com) (gcc version 4.8.5 20150623 (Red Hat 4.8.5-16) (GCC) ) #1 SMP Sun Jan 14
  10:36:03 EST 2018


  ******  HSPICE Threads Information  ******

  Command Line Threads Count :     1
  Available CPU Count        :    24
  Actual Threads Count       :     1


  ******  Circuit Statistics  ******
  # nodes       =      44 # elements   =      19
  # resistors   =       0 # capacitors =       0 # inductors   =       0
  # mutual_inds =       0 # vccs       =       0 # vcvs        =       0
  # cccs        =       0 # ccvs       =       0 # volt_srcs   =       3
  # curr_srcs   =       0 # diodes     =       0 # bjts        =       0
  # jfets       =       0 # mosfets    =      16 # U elements  =       0
  # T elements  =       0 # W elements =       0 # B elements  =       0
  # S elements  =       0 # P elements =       0 # va device   =       0
  # vector_srcs =       0


  ******  Runtime Statistics (seconds)  ******

  analysis           time    # points   tot. iter  conv.iter
  op point           0.00           1           5
  transient          0.05         401         544         131 rev=         7
  readin             0.00
  errchk             0.01
  setup              0.00
  output             0.00


           peak memory used        135.46 megabytes
           total cpu time            0.06 seconds
           total elapsed time        0.32 seconds
           job started at     18:27:16 09/13/2020
           job ended   at     18:27:16 09/13/2020


 lic: Release hspice token(s) 
