$DATA1 SOURCE='HSPICE' VERSION='F-2011.09-SP2 64-BIT'
.TITLE '$ netlist of inverter'
 model_uut_peak_power00 model_uut_avg_power012 uut_peak_power    
 uut_avg_power    source_peak_power source_avg_power trf_delay         
 tfr_delay        temper           alter#            
  1.276e-05        1.764e-07        2.666e-05        1.526e-07        
  3.809e-04        5.213e-06        6.689e-12        6.108e-12        
  2.500e+01       1                 
