$DATA1 SOURCE='HSPICE' VERSION='F-2011.09-SP2 64-BIT'
.TITLE '$ netlist of sram_1'
 write_q_delay_00 read_q_delay_00  temper           alter#            
  9.322e-12        6.350e-12        2.500e+01       1                 
