$DATA1 SOURCE='HSPICE' VERSION='F-2011.09-SP2 64-BIT'
.TITLE '$ netlist of sram_1'
 write_q_delay_00 read_q_delay_00  temper           alter#            
  7.220e-12        5.084e-12        2.500e+01       1                 
